Creatine
  -ISIS-  12280123113D
Molecules-3D MDL file generator
 21 19  0  0  0  0  0  0  0  0999 V2000
   -0.0630    2.2280   -0.3280 O   0  0  0  0  0  0  0  0  0  0  0  0
   -0.4410    3.1200   -0.4750 H   0  0  0  0  0  0  0  0  0  0  0  0
    0.8400    2.3960    0.0110 H   0  0  0  0  0  0  0  0  0  0  0  0
    2.7530   -0.3550   -0.3180 O   0  0  0  0  0  0  0  0  0  0  0  0
    3.5110   -0.9760   -0.3440 H   0  0  0  0  0  0  0  0  0  0  0  0
    1.7220   -1.1080    0.0160 C   0  0  0  0  0  0  0  0  0  0  0  0
    1.8790   -2.3000    0.2230 O   0  0  0  0  0  0  0  0  0  0  0  0
    0.4190   -0.5280    0.1340 C   0  0  0  0  0  0  0  0  0  0  0  0
    0.0470   -0.6720    1.1480 H   0  0  0  0  0  0  0  0  0  0  0  0
    0.4740    0.5380   -0.0870 H   0  0  0  0  0  0  0  0  0  0  0  0
   -0.5170   -2.5990   -0.4730 C   0  0  0  0  0  0  0  0  0  0  0  0
   -0.8600   -2.7170    0.5540 H   0  0  0  0  0  0  0  0  0  0  0  0
    0.4840   -3.0190   -0.5710 H   0  0  0  0  0  0  0  0  0  0  0  0
   -1.1950   -3.1200   -1.1480 H   0  0  0  0  0  0  0  0  0  0  0  0
   -0.4820   -1.1780   -0.8160 N   0  0  3  0  0  0  0  0  0  0  0  0
   -1.8410    0.6450   -0.8890 N   0  0  0  0  0  0  0  0  0  0  0  0
   -1.0930    1.1500   -1.1310 H   0  0  0  0  0  0  0  0  0  0  0  0
   -1.7250   -0.6070   -0.6770 C   0  0  0  0  0  0  0  0  0  0  0  0
   -2.8460   -1.3170   -0.3230 N   0  0  0  0  0  0  0  0  0  0  0  0
   -2.6130   -2.3050   -0.2320 H   0  0  0  0  0  0  0  0  0  0  0  0
   -3.5110   -1.2330   -1.0950 H   0  0  0  0  0  0  0  0  0  0  0  0
  1  2  1  0  0  0  0
  1  3  1  0  0  0  0
  4  5  1  0  0  0  0
  4  6  1  0  0  0  0
  6  7  2  0  0  0  0
  6  8  1  0  0  0  0
  8  9  1  0  0  0  0
  8 10  1  0  0  0  0
  8 15  1  0  0  0  0
 11 12  1  0  0  0  0
 11 13  1  0  0  0  0
 11 14  1  0  0  0  0
 11 15  1  0  0  0  0
 15 18  1  0  0  0  0
 16 17  1  0  0  0  0
 16 18  2  0  0  0  0
 18 19  1  0  0  0  0
 19 20  1  0  0  0  0
 19 21  1  0  0  0  0
M  END
