D-Alanine
  -ISIS-  12280117173D
Molecules-3D MDL file generator
 13 12  0  0  0  0  0  0  0  0999 V2000
   -0.6300    1.0710    1.0360 N   0  0  0  0  0  0  0  0  0  0  0  0
   -1.5040    1.5870    0.9100 H   0  0  0  0  0  0  0  0  0  0  0  0
    0.1330    1.7500    0.9940 H   0  0  0  0  0  0  0  0  0  0  0  0
   -0.4810    0.1900   -0.1240 C   0  0  3  0  0  0  0  0  0  0  0  0
    0.7520   -1.7500    0.0030 O   0  0  0  0  0  0  0  0  0  0  0  0
    0.7560   -0.5290   -0.0320 C   0  0  0  0  0  0  0  0  0  0  0  0
   -1.5280   -1.4570   -1.0350 H   0  0  0  0  0  0  0  0  0  0  0  0
   -2.5840   -0.2590   -0.2470 H   0  0  0  0  0  0  0  0  0  0  0  0
   -1.6470   -1.4080    0.7390 H   0  0  0  0  0  0  0  0  0  0  0  0
   -1.6440   -0.8050   -0.1680 C   0  0  0  0  0  0  0  0  0  0  0  0
    2.5840   -0.5780    0.0810 H   0  0  0  0  0  0  0  0  0  0  0  0
    1.9030    0.1240    0.0110 O   0  0  0  0  0  0  0  0  0  0  0  0
   -0.4860    0.7880   -1.0360 H   0  0  0  0  0  0  0  0  0  0  0  0
  1  2  1  0  0  0  0
  1  3  1  0  0  0  0
  1  4  1  0  0  0  0
  4  6  1  0  0  0  0
  4 10  1  0  0  0  0
  4 13  1  0  0  0  0
  5  6  2  0  0  0  0
  6 12  1  0  0  0  0
  7 10  1  0  0  0  0
  8 10  1  0  0  0  0
  9 10  1  0  0  0  0
 11 12  1  0  0  0  0
M  END
