C62H11N14O13S
  -ISIS-  12310116183D

184187  0  0  0  0  0  0  0  0999 V2000
   15.7470    8.4184    2.2018 N   0  0  0  0  0  0  0  0  0  0  0  0
   14.7701    7.3220    2.2385 C   0  0  1  0  0  0  0  0  0  0  0  0
   14.4075    7.1924    3.2582 H   0  0  0  0  0  0  0  0  0  0  0  0
   15.4271    6.0480    1.7732 C   0  0  0  0  0  0  0  0  0  0  0  0
   14.9582    4.7195    2.3083 C   0  0  2  0  0  0  0  0  0  0  0  0
   13.9009    4.7739    2.5676 H   0  0  0  0  0  0  0  0  0  0  0  0
   15.1875    3.6179    1.2587 C   0  0  1  0  0  0  0  0  0  0  0  0
   15.6380    4.0443    0.3623 H   0  0  0  0  0  0  0  0  0  0  0  0
   16.1486    2.5940    1.8972 C   0  0  0  0  0  0  0  0  0  0  0  0
   15.9567    2.7921    3.4214 C   0  0  0  0  0  0  0  0  0  0  0  0
   15.7870    4.3271    3.5488 C   0  0  0  0  0  0  0  0  0  0  0  0
   13.8796    2.9540    0.9129 C   0  0  0  0  0  0  0  0  0  0  0  0
   13.8493    1.9552    0.0085 N   0  0  3  0  0  0  0  0  0  0  0  0
   12.6502    1.3465   -0.3085 C   0  0  0  0  0  0  0  0  0  0  0  0
   12.6193    0.3279   -1.2308 N   0  0  3  0  0  0  0  0  0  0  0  0
   11.3478   -0.3176   -1.5669 C   0  0  0  0  0  0  0  0  0  0  0  0
   11.5905   -1.4097   -2.6106 C   0  0  0  0  0  0  0  0  0  0  0  0
   10.2626   -2.0838   -2.9616 C   0  0  0  0  0  0  0  0  0  0  0  0
   10.5053   -3.1760   -4.0052 C   0  0  2  0  0  0  0  0  0  0  0  0
   11.1939   -3.9181   -3.6012 H   0  0  0  0  0  0  0  0  0  0  0  0
   11.0853   -2.5772   -5.2148 N   0  0  0  0  0  0  0  0  0  0  0  0
    9.1974   -3.8399   -4.3510 C   0  0  0  0  0  0  0  0  0  0  0  0
    8.7328   -5.0418   -3.5695 C   0  0  1  0  0  0  0  0  0  0  0  0
    9.1157   -4.9948   -2.5501 H   0  0  0  0  0  0  0  0  0  0  0  0
    7.1951   -5.0975   -3.5529 C   0  0  1  0  0  0  0  0  0  0  0  0
    6.7849   -4.2552   -4.1101 H   0  0  0  0  0  0  0  0  0  0  0  0
    6.7949   -6.4244   -4.2304 C   0  0  0  0  0  0  0  0  0  0  0  0
    8.0404   -7.3291   -4.0593 C   0  0  0  0  0  0  0  0  0  0  0  0
    9.2143   -6.3368   -4.2558 C   0  0  0  0  0  0  0  0  0  0  0  0
    6.6928   -5.0699   -2.1324 C   0  0  0  0  0  0  0  0  0  0  0  0
    5.3686   -5.1104   -1.8849 N   0  0  3  0  0  0  0  0  0  0  0  0
    4.8803   -5.0836   -0.5039 C   0  0  0  0  0  0  0  0  0  0  0  0
    3.3743   -5.1386   -0.5024 C   0  0  0  0  0  0  0  0  0  0  0  0
    2.7007   -5.1255    0.6648 N   0  0  3  0  0  0  0  0  0  0  0  0
    1.3538   -5.1747    0.6662 C   0  0  0  0  0  0  0  0  0  0  0  0
    0.6006   -5.1601    1.9713 C   0  0  0  0  0  0  0  0  0  0  0  0
   -0.9026   -5.2240    1.6934 C   0  0  0  0  0  0  0  0  0  0  0  0
   -1.6673   -5.2091    3.0185 C   0  0  1  0  0  0  0  0  0  0  0  0
   -1.4368   -4.2921    3.5608 H   0  0  0  0  0  0  0  0  0  0  0  0
   -1.2690   -6.3693    3.8268 N   0  0  0  0  0  0  0  0  0  0  0  0
   -3.1479   -5.2721    2.7447 C   0  0  0  0  0  0  0  0  0  0  0  0
   -3.8526   -4.1345    2.5846 N   0  0  3  0  0  0  0  0  0  0  0  0
   -5.2919   -4.1957    2.3185 C   0  0  2  0  0  0  0  0  0  0  0  0
   -5.5225   -5.1127    1.7762 H   0  0  0  0  0  0  0  0  0  0  0  0
   -5.7006   -3.0056    1.4893 C   0  0  0  0  0  0  0  0  0  0  0  0
   -6.9877   -2.8510    1.1207 N   0  0  3  0  0  0  0  0  0  0  0  0
   -7.3849   -1.6940    0.3146 C   0  0  2  0  0  0  0  0  0  0  0  0
   -6.7321   -0.8513    0.5421 H   0  0  0  0  0  0  0  0  0  0  0  0
   -8.8108   -1.3252    0.6337 C   0  0  0  0  0  0  0  0  0  0  0  0
   -9.3937   -0.2835    0.0078 N   0  0  3  0  0  0  0  0  0  0  0  0
  -10.7798    0.0750    0.3180 C   0  0  0  0  0  0  0  0  0  0  0  0
  -11.1884    1.2652   -0.5112 C   0  0  0  0  0  0  0  0  0  0  0  0
  -12.4307    1.7744   -0.3928 N   0  0  3  0  0  0  0  0  0  0  0  0
  -12.8310    2.9254   -1.2059 C   0  0  1  0  0  0  0  0  0  0  0  0
  -11.9536    3.3462   -1.6970 H   0  0  0  0  0  0  0  0  0  0  0  0
  -13.8410    2.4760   -2.2637 C   0  0  0  0  0  0  0  0  0  0  0  0
  -13.1900    1.4410   -3.1833 C   0  0  3  0  0  0  0  0  0  0  0  0
  -14.2312    0.9087   -4.1699 C   0  0  0  0  0  0  0  0  0  0  0  0
  -12.0429    2.0952   -3.9560 C   0  0  0  0  0  0  0  0  0  0  0  0
  -13.4612    3.9704   -0.3216 C   0  0  0  0  0  0  0  0  0  0  0  0
  -13.9087    5.1241   -0.8554 N   0  0  3  0  0  0  0  0  0  0  0  0
  -14.5213    6.1399    0.0043 C   0  0  2  0  0  0  0  0  0  0  0  0
  -14.0858    6.0823    1.0019 H   0  0  0  0  0  0  0  0  0  0  0  0
  -14.2649    7.5286   -0.5846 C   0  0  0  0  0  0  0  0  0  0  0  0
  -12.7574    7.7754   -0.6712 C   0  0  0  0  0  0  0  0  0  0  0  0
  -12.4534    9.4218   -1.3695 S   0  0  0  0  0  0  0  0  0  0  0  0
  -10.6395    9.4401   -1.3548 C   0  0  0  0  0  0  0  0  0  0  0  0
  -16.0061    5.8968    0.0896 C   0  0  0  0  0  0  0  0  0  0  0  0
  -16.7780    6.7098    0.8279 O   0  0  0  0  0  0  0  0  0  0  0  0
  -16.5018    4.9701   -0.5066 O   0  0  0  0  0  0  0  0  0  0  0  0
  -13.5656    3.7731    0.8705 O   0  0  0  0  0  0  0  0  0  0  0  0
  -10.3995    1.7647   -1.2851 O   0  0  0  0  0  0  0  0  0  0  0  0
   -9.4339   -1.9657    1.4537 O   0  0  0  0  0  0  0  0  0  0  0  0
   -7.2685   -2.0430   -1.1705 C   0  0  0  0  0  0  0  0  0  0  0  0
   -5.8426   -2.4118   -1.4896 C   0  0  0  0  0  0  0  0  0  0  0  0
   -5.4290   -3.7265   -1.3856 C   0  0  0  0  0  0  0  0  0  0  0  0
   -4.1208   -4.0648   -1.6783 C   0  0  0  0  0  0  0  0  0  0  0  0
   -3.2268   -3.0884   -2.0754 C   0  0  0  0  0  0  0  0  0  0  0  0
   -3.6407   -1.7735   -2.1803 C   0  0  0  0  0  0  0  0  0  0  0  0
   -4.9496   -1.4359   -1.8919 C   0  0  0  0  0  0  0  0  0  0  0  0
   -4.8712   -2.1868    1.1537 O   0  0  0  0  0  0  0  0  0  0  0  0
   -6.0567   -4.1809    3.6436 C   0  0  0  0  0  0  0  0  0  0  0  0
   -5.6481   -5.3710    4.4728 C   0  0  0  0  0  0  0  0  0  0  0  0
   -4.5855   -5.2695    5.3508 C   0  0  0  0  0  0  0  0  0  0  0  0
   -4.2106   -6.3614    6.1115 C   0  0  0  0  0  0  0  0  0  0  0  0
   -4.8987   -7.5544    5.9943 C   0  0  0  0  0  0  0  0  0  0  0  0
   -5.9621   -7.6557    5.1166 C   0  0  0  0  0  0  0  0  0  0  0  0
   -6.3396   -6.5628    4.3593 C   0  0  0  0  0  0  0  0  0  0  0  0
   -3.7053   -6.3466    2.6685 O   0  0  0  0  0  0  0  0  0  0  0  0
    0.7483   -5.2308   -0.3825 O   0  0  0  0  0  0  0  0  0  0  0  0
    2.7688   -5.1946   -1.5511 O   0  0  0  0  0  0  0  0  0  0  0  0
    7.4803   -5.0114   -1.2118 O   0  0  0  0  0  0  0  0  0  0  0  0
    8.5216   -3.4089   -5.2542 O   0  0  0  0  0  0  0  0  0  0  0  0
   11.5496    1.7376    0.2665 N   0  0  0  0  0  0  0  0  0  0  0  0
   12.8546    3.3183    1.4484 O   0  0  0  0  0  0  0  0  0  0  0  0
   16.3292    6.0917    0.9717 O   0  0  0  0  0  0  0  0  0  0  0  0
   13.5945    7.6553    1.3177 C   0  0  0  0  0  0  0  0  0  0  0  0
   12.9275    8.9487    1.7901 C   0  0  0  0  0  0  0  0  0  0  0  0
   11.7519    9.2820    0.8693 C   0  0  0  0  0  0  0  0  0  0  0  0
   11.0849   10.5754    1.3417 C   0  0  0  0  0  0  0  0  0  0  0  0
    9.9562   10.8955    0.4576 N   0  0  0  0  0  0  0  0  0  0  0  0
   16.5462    8.1127    2.7365 H   0  0  0  0  0  0  0  0  0  0  0  0
   16.0536    8.5017    1.2441 H   0  0  0  0  0  0  0  0  0  0  0  0
   15.8737    1.5801    1.6067 H   0  0  0  0  0  0  0  0  0  0  0  0
   17.1785    2.8078    1.6115 H   0  0  0  0  0  0  0  0  0  0  0  0
   15.0620    2.2751    3.7684 H   0  0  0  0  0  0  0  0  0  0  0  0
   16.8365    2.4538    3.9687 H   0  0  0  0  0  0  0  0  0  0  0  0
   16.7585    4.8212    3.5297 H   0  0  0  0  0  0  0  0  0  0  0  0
   15.2489    4.5769    4.4632 H   0  0  0  0  0  0  0  0  0  0  0  0
   14.6693    1.6637   -0.4199 H   0  0  0  0  0  0  0  0  0  0  0  0
   13.4393    0.0364   -1.6592 H   0  0  0  0  0  0  0  0  0  0  0  0
   10.9175   -0.7619   -0.6694 H   0  0  0  0  0  0  0  0  0  0  0  0
   10.6592    0.4245   -1.9709 H   0  0  0  0  0  0  0  0  0  0  0  0
   12.0208   -0.9654   -3.5081 H   0  0  0  0  0  0  0  0  0  0  0  0
   12.2791   -2.1518   -2.2065 H   0  0  0  0  0  0  0  0  0  0  0  0
    9.8323   -2.5281   -2.0641 H   0  0  0  0  0  0  0  0  0  0  0  0
    9.5740   -1.3417   -3.3656 H   0  0  0  0  0  0  0  0  0  0  0  0
   10.4173   -1.9004   -5.5522 H   0  0  0  0  0  0  0  0  0  0  0  0
   11.8994   -2.0590   -4.9201 H   0  0  0  0  0  0  0  0  0  0  0  0
    5.9325   -6.8638   -3.7290 H   0  0  0  0  0  0  0  0  0  0  0  0
    6.5821   -6.2641   -5.2873 H   0  0  0  0  0  0  0  0  0  0  0  0
    8.0670   -7.7650   -3.0606 H   0  0  0  0  0  0  0  0  0  0  0  0
    8.0603   -8.1073   -4.8223 H   0  0  0  0  0  0  0  0  0  0  0  0
    9.3926   -6.1620   -5.3168 H   0  0  0  0  0  0  0  0  0  0  0  0
   10.1165   -6.7128   -3.7733 H   0  0  0  0  0  0  0  0  0  0  0  0
    4.7388   -5.1572   -2.6212 H   0  0  0  0  0  0  0  0  0  0  0  0
    5.2758   -5.9426    0.0380 H   0  0  0  0  0  0  0  0  0  0  0  0
    5.2108   -4.1648   -0.0195 H   0  0  0  0  0  0  0  0  0  0  0  0
    3.1852   -5.0806    1.5040 H   0  0  0  0  0  0  0  0  0  0  0  0
    0.8961   -6.0209    2.5711 H   0  0  0  0  0  0  0  0  0  0  0  0
    0.8311   -4.2431    2.5136 H   0  0  0  0  0  0  0  0  0  0  0  0
   -1.1981   -4.3632    1.0936 H   0  0  0  0  0  0  0  0  0  0  0  0
   -1.1331   -6.1410    1.1511 H   0  0  0  0  0  0  0  0  0  0  0  0
   -1.4998   -7.1908    3.2883 H   0  0  0  0  0  0  0  0  0  0  0  0
   -0.2628   -6.3420    3.8971 H   0  0  0  0  0  0  0  0  0  0  0  0
   -3.4068   -3.2752    2.6456 H   0  0  0  0  0  0  0  0  0  0  0  0
   -7.6510   -3.5059    1.3891 H   0  0  0  0  0  0  0  0  0  0  0  0
   -8.8953    0.2288   -0.6480 H   0  0  0  0  0  0  0  0  0  0  0  0
  -11.4327   -0.7677    0.0905 H   0  0  0  0  0  0  0  0  0  0  0  0
  -10.8628    0.3236    1.3760 H   0  0  0  0  0  0  0  0  0  0  0  0
  -13.0596    1.3789    0.2308 H   0  0  0  0  0  0  0  0  0  0  0  0
  -14.7075    2.0324   -1.7733 H   0  0  0  0  0  0  0  0  0  0  0  0
  -14.1579    3.3369   -2.8524 H   0  0  0  0  0  0  0  0  0  0  0  0
  -12.8015    0.6167   -2.5851 H   0  0  0  0  0  0  0  0  0  0  0  0
  -13.7674    0.1713   -4.8250 H   0  0  0  0  0  0  0  0  0  0  0  0
  -15.0484    0.4426   -3.6194 H   0  0  0  0  0  0  0  0  0  0  0  0
  -14.6196    1.7329   -4.7681 H   0  0  0  0  0  0  0  0  0  0  0  0
  -11.6521    1.3916   -4.6910 H   0  0  0  0  0  0  0  0  0  0  0  0
  -12.4096    2.9864   -4.4653 H   0  0  0  0  0  0  0  0  0  0  0  0
  -11.2497    2.3737   -3.2621 H   0  0  0  0  0  0  0  0  0  0  0  0
  -13.8252    5.2819   -1.8088 H   0  0  0  0  0  0  0  0  0  0  0  0
  -14.7004    7.5862   -1.5822 H   0  0  0  0  0  0  0  0  0  0  0  0
  -14.7207    8.2843    0.0550 H   0  0  0  0  0  0  0  0  0  0  0  0
  -12.3219    7.7177    0.3264 H   0  0  0  0  0  0  0  0  0  0  0  0
  -12.3016    7.0196   -1.3108 H   0  0  0  0  0  0  0  0  0  0  0  0
  -10.2629    8.6221   -1.9689 H   0  0  0  0  0  0  0  0  0  0  0  0
  -10.2825   10.3890   -1.7550 H   0  0  0  0  0  0  0  0  0  0  0  0
  -10.2832    9.3202   -0.3317 H   0  0  0  0  0  0  0  0  0  0  0  0
  -17.7308    6.5538    0.8826 H   0  0  0  0  0  0  0  0  0  0  0  0
   -7.9214   -2.8857   -1.3980 H   0  0  0  0  0  0  0  0  0  0  0  0
   -7.5641   -1.1821   -1.7703 H   0  0  0  0  0  0  0  0  0  0  0  0
   -6.1276   -4.4894   -1.0753 H   0  0  0  0  0  0  0  0  0  0  0  0
   -3.7975   -5.0920   -1.5963 H   0  0  0  0  0  0  0  0  0  0  0  0
   -2.2047   -3.3526   -2.3033 H   0  0  0  0  0  0  0  0  0  0  0  0
   -2.9420   -1.0105   -2.4902 H   0  0  0  0  0  0  0  0  0  0  0  0
   -5.2730   -0.4087   -1.9738 H   0  0  0  0  0  0  0  0  0  0  0  0
   -5.8261   -3.2639    4.1859 H   0  0  0  0  0  0  0  0  0  0  0  0
   -7.1276   -4.2264    3.4456 H   0  0  0  0  0  0  0  0  0  0  0  0
   -4.0479   -4.3373    5.4425 H   0  0  0  0  0  0  0  0  0  0  0  0
   -3.3799   -6.2823    6.7971 H   0  0  0  0  0  0  0  0  0  0  0  0
   -4.6054   -8.4076    6.5880 H   0  0  0  0  0  0  0  0  0  0  0  0
   -6.4995   -8.5880    5.0247 H   0  0  0  0  0  0  0  0  0  0  0  0
   -7.1704   -6.6419    3.6737 H   0  0  0  0  0  0  0  0  0  0  0  0
   10.7078    1.3103    0.0439 H   0  0  0  0  0  0  0  0  0  0  0  0
   13.9571    7.7849    0.2980 H   0  0  0  0  0  0  0  0  0  0  0  0
   12.8696    6.8417    1.3450 H   0  0  0  0  0  0  0  0  0  0  0  0
   12.5649    8.8191    2.8098 H   0  0  0  0  0  0  0  0  0  0  0  0
   13.6524    9.7623    1.7628 H   0  0  0  0  0  0  0  0  0  0  0  0
   12.1145    9.4116   -0.1504 H   0  0  0  0  0  0  0  0  0  0  0  0
   11.0270    8.4685    0.8966 H   0  0  0  0  0  0  0  0  0  0  0  0
   10.7224   10.4459    2.3614 H   0  0  0  0  0  0  0  0  0  0  0  0
   11.8098   11.3890    1.3144 H   0  0  0  0  0  0  0  0  0  0  0  0
    9.5491   11.7508    0.8052 H   0  0  0  0  0  0  0  0  0  0  0  0
   10.3481   11.1078   -0.4476 H   0  0  0  0  0  0  0  0  0  0  0  0
  2  1  1  1  0  0  0
  2  3  1  0  0  0  0
  2  4  1  0  0  0  0
  5  4  1  1  0  0  0
  5  6  1  0  0  0  0
  5  7  1  0  0  0  0
  7  8  1  0  0  0  0
  7  9  1  0  0  0  0
  9 10  1  0  0  0  0
 10 11  1  0  0  0  0
  5 11  1  0  0  0  0
  7 12  1  6  0  0  0
 12 13  1  0  0  0  0
 13 14  1  0  0  0  0
 14 15  1  0  0  0  0
 15 16  1  0  0  0  0
 16 17  1  0  0  0  0
 17 18  1  0  0  0  0
 18 19  1  0  0  0  0
 19 20  1  0  0  0  0
 19 21  1  6  0  0  0
 19 22  1  0  0  0  0
 23 22  1  6  0  0  0
 23 24  1  0  0  0  0
 23 25  1  0  0  0  0
 25 26  1  0  0  0  0
 25 27  1  0  0  0  0
 27 28  1  0  0  0  0
 28 29  1  0  0  0  0
 23 29  1  0  0  0  0
 25 30  1  1  0  0  0
 30 31  1  0  0  0  0
 31 32  1  0  0  0  0
 32 33  1  0  0  0  0
 33 34  1  0  0  0  0
 34 35  1  0  0  0  0
 35 36  1  0  0  0  0
 36 37  1  0  0  0  0
 37 38  1  0  0  0  0
 38 39  1  0  0  0  0
 38 40  1  6  0  0  0
 38 41  1  0  0  0  0
 41 42  1  0  0  0  0
 43 42  1  1  0  0  0
 43 44  1  0  0  0  0
 43 45  1  0  0  0  0
 45 46  1  0  0  0  0
 47 46  1  1  0  0  0
 47 48  1  0  0  0  0
 47 49  1  0  0  0  0
 49 50  1  0  0  0  0
 50 51  1  0  0  0  0
 51 52  1  0  0  0  0
 52 53  1  0  0  0  0
 54 53  1  1  0  0  0
 54 55  1  0  0  0  0
 54 56  1  0  0  0  0
 56 57  1  0  0  0  0
 57 58  1  0  0  0  0
 57 59  1  0  0  0  0
 54 60  1  0  0  0  0
 60 61  1  0  0  0  0
 62 61  1  1  0  0  0
 62 63  1  0  0  0  0
 62 64  1  0  0  0  0
 64 65  1  0  0  0  0
 65 66  1  0  0  0  0
 66 67  1  0  0  0  0
 62 68  1  0  0  0  0
 68 69  1  0  0  0  0
 68 70  2  0  0  0  0
 60 71  2  0  0  0  0
 52 72  2  0  0  0  0
 49 73  2  0  0  0  0
 47 74  1  0  0  0  0
 74 75  1  0  0  0  0
 75 76  2  0  0  0  0
 76 77  1  0  0  0  0
 77 78  2  0  0  0  0
 78 79  1  0  0  0  0
 79 80  2  0  0  0  0
 75 80  1  0  0  0  0
 45 81  2  0  0  0  0
 43 82  1  0  0  0  0
 82 83  1  0  0  0  0
 83 84  2  0  0  0  0
 84 85  1  0  0  0  0
 85 86  2  0  0  0  0
 86 87  1  0  0  0  0
 87 88  2  0  0  0  0
 83 88  1  0  0  0  0
 41 89  2  0  0  0  0
 35 90  2  0  0  0  0
 33 91  2  0  0  0  0
 30 92  2  0  0  0  0
 22 93  2  0  0  0  0
 14 94  2  0  0  0  0
 12 95  2  0  0  0  0
  4 96  2  0  0  0  0
  2 97  1  0  0  0  0
 97 98  1  0  0  0  0
 98 99  1  0  0  0  0
 99100  1  0  0  0  0
100101  1  0  0  0  0
  1102  1  0  0  0  0
  1103  1  0  0  0  0
  9104  1  0  0  0  0
  9105  1  0  0  0  0
 10106  1  0  0  0  0
 10107  1  0  0  0  0
 11108  1  0  0  0  0
 11109  1  0  0  0  0
 13110  1  0  0  0  0
 15111  1  0  0  0  0
 16112  1  0  0  0  0
 16113  1  0  0  0  0
 17114  1  0  0  0  0
 17115  1  0  0  0  0
 18116  1  0  0  0  0
 18117  1  0  0  0  0
 21118  1  0  0  0  0
 21119  1  0  0  0  0
 27120  1  0  0  0  0
 27121  1  0  0  0  0
 28122  1  0  0  0  0
 28123  1  0  0  0  0
 29124  1  0  0  0  0
 29125  1  0  0  0  0
 31126  1  0  0  0  0
 32127  1  0  0  0  0
 32128  1  0  0  0  0
 34129  1  0  0  0  0
 36130  1  0  0  0  0
 36131  1  0  0  0  0
 37132  1  0  0  0  0
 37133  1  0  0  0  0
 40134  1  0  0  0  0
 40135  1  0  0  0  0
 42136  1  0  0  0  0
 46137  1  0  0  0  0
 50138  1  0  0  0  0
 51139  1  0  0  0  0
 51140  1  0  0  0  0
 53141  1  0  0  0  0
 56142  1  0  0  0  0
 56143  1  0  0  0  0
 57144  1  0  0  0  0
 58145  1  0  0  0  0
 58146  1  0  0  0  0
 58147  1  0  0  0  0
 59148  1  0  0  0  0
 59149  1  0  0  0  0
 59150  1  0  0  0  0
 61151  1  0  0  0  0
 64152  1  0  0  0  0
 64153  1  0  0  0  0
 65154  1  0  0  0  0
 65155  1  0  0  0  0
 67156  1  0  0  0  0
 67157  1  0  0  0  0
 67158  1  0  0  0  0
 69159  1  0  0  0  0
 74160  1  0  0  0  0
 74161  1  0  0  0  0
 76162  1  0  0  0  0
 77163  1  0  0  0  0
 78164  1  0  0  0  0
 79165  1  0  0  0  0
 80166  1  0  0  0  0
 82167  1  0  0  0  0
 82168  1  0  0  0  0
 84169  1  0  0  0  0
 85170  1  0  0  0  0
 86171  1  0  0  0  0
 87172  1  0  0  0  0
 88173  1  0  0  0  0
 94174  1  0  0  0  0
 97175  1  0  0  0  0
 97176  1  0  0  0  0
 98177  1  0  0  0  0
 98178  1  0  0  0  0
 99179  1  0  0  0  0
 99180  1  0  0  0  0
100181  1  0  0  0  0
100182  1  0  0  0  0
101183  1  0  0  0  0
101184  1  0  0  0  0
M  END
