beeswax.mol
  -ISIS-  12130117353D

140139  0  0  0  0  0  0  0  0999 V2000
  -28.5836   -0.3250   -3.0909 C   0  0  0  0  0  0  0  0  0  0  0  0
  -27.4129    0.3049   -2.3266 C   0  0  0  0  0  0  0  0  0  0  0  0
  -26.0643   -0.2831   -2.7692 C   0  0  0  0  0  0  0  0  0  0  0  0
  -24.8853    0.3438   -2.0100 C   0  0  0  0  0  0  0  0  0  0  0  0
  -23.5440   -0.2490   -2.4612 C   0  0  0  0  0  0  0  0  0  0  0  0
  -22.3746    0.3879   -1.6997 C   0  0  0  0  0  0  0  0  0  0  0  0
  -21.0397   -0.2095   -2.1605 C   0  0  0  0  0  0  0  0  0  0  0  0
  -19.8542    0.4151   -1.4159 C   0  0  0  0  0  0  0  0  0  0  0  0
  -18.5366   -0.2000   -1.9000 C   0  0  0  0  0  0  0  0  0  0  0  0
  -17.3525    0.4253   -1.1620 C   0  0  0  0  0  0  0  0  0  0  0  0
  -16.0244   -0.1745   -1.6315 C   0  0  0  0  0  0  0  0  0  0  0  0
  -14.8611    0.4758   -0.8749 C   0  0  0  0  0  0  0  0  0  0  0  0
  -13.5190   -0.1081   -1.3279 C   0  0  0  0  0  0  0  0  0  0  0  0
  -12.3761    0.5586   -0.5622 C   0  0  0  0  0  0  0  0  0  0  0  0
  -11.0129    0.0091   -0.9793 C   0  0  0  0  0  0  0  0  0  0  0  0
   -9.9002    0.6865   -0.2072 C   0  0  0  0  0  0  0  0  0  0  0  0
  -10.0437    1.5532    0.6219 O   0  0  0  0  0  0  0  0  0  0  0  0
   -8.7091    0.1685   -0.5886 O   0  0  0  0  0  0  0  0  0  0  0  0
   -7.5819    0.7114    0.0589 C   0  0  0  0  0  0  0  0  0  0  0  0
   -6.3506    0.0137   -0.4918 C   0  0  0  0  0  0  0  0  0  0  0  0
   -5.1219    0.5944    0.2010 C   0  0  0  0  0  0  0  0  0  0  0  0
   -3.8489   -0.0729   -0.3120 C   0  0  0  0  0  0  0  0  0  0  0  0
   -2.6385    0.5292    0.3997 C   0  0  0  0  0  0  0  0  0  0  0  0
   -1.3600   -0.1349   -0.1055 C   0  0  0  0  0  0  0  0  0  0  0  0
   -0.1709    0.4847    0.6219 C   0  0  0  0  0  0  0  0  0  0  0  0
    1.1234   -0.1592    0.1414 C   0  0  0  0  0  0  0  0  0  0  0  0
    2.3074    0.4676    0.8748 C   0  0  0  0  0  0  0  0  0  0  0  0
    3.5979   -0.1874    0.3835 C   0  0  0  0  0  0  0  0  0  0  0  0
    4.8022    0.4202    1.1000 C   0  0  0  0  0  0  0  0  0  0  0  0
    6.0812   -0.2461    0.5960 C   0  0  0  0  0  0  0  0  0  0  0  0
    7.2870    0.3606    1.3116 C   0  0  0  0  0  0  0  0  0  0  0  0
    8.5752   -0.2988    0.8150 C   0  0  0  0  0  0  0  0  0  0  0  0
    9.7824    0.3094    1.5322 C   0  0  0  0  0  0  0  0  0  0  0  0
   11.0716   -0.3471    1.0388 C   0  0  0  0  0  0  0  0  0  0  0  0
   12.2795    0.2586    1.7535 C   0  0  0  0  0  0  0  0  0  0  0  0
   13.5719   -0.3967    1.2615 C   0  0  0  0  0  0  0  0  0  0  0  0
   14.7870    0.2061    1.9743 C   0  0  0  0  0  0  0  0  0  0  0  0
   16.0832   -0.4483    1.4836 C   0  0  0  0  0  0  0  0  0  0  0  0
   17.2955    0.1561    2.1975 C   0  0  0  0  0  0  0  0  0  0  0  0
   18.5909   -0.4962    1.7087 C   0  0  0  0  0  0  0  0  0  0  0  0
   19.8024    0.1100    2.4244 C   0  0  0  0  0  0  0  0  0  0  0  0
   21.1000   -0.5432    1.9350 C   0  0  0  0  0  0  0  0  0  0  0  0
   22.3164    0.0585    2.6466 C   0  0  0  0  0  0  0  0  0  0  0  0
   23.6128   -0.5957    2.1562 C   0  0  0  0  0  0  0  0  0  0  0  0
   24.8342    0.0036    2.8661 C   0  0  0  0  0  0  0  0  0  0  0  0
   26.1391   -0.6452    2.3818 C   0  0  0  0  0  0  0  0  0  0  0  0
   27.3712   -0.0556    3.0835 C   0  0  0  0  0  0  0  0  0  0  0  0
   28.6685   -0.7100    2.5929 C   0  0  0  0  0  0  0  0  0  0  0  0
  -29.5548    0.1092   -2.7612 H   0  0  0  0  0  0  0  0  0  0  0  0
  -28.6286   -1.4243   -2.9207 H   0  0  0  0  0  0  0  0  0  0  0  0
  -28.4883   -0.1498   -4.1861 H   0  0  0  0  0  0  0  0  0  0  0  0
  -27.5521    0.1350   -1.2322 H   0  0  0  0  0  0  0  0  0  0  0  0
  -27.4121    1.4081   -2.4968 H   0  0  0  0  0  0  0  0  0  0  0  0
  -25.9281   -0.1126   -3.8642 H   0  0  0  0  0  0  0  0  0  0  0  0
  -26.0670   -1.3862   -2.5974 H   0  0  0  0  0  0  0  0  0  0  0  0
  -25.0127    0.1727   -0.9146 H   0  0  0  0  0  0  0  0  0  0  0  0
  -24.8754    1.4466   -2.1810 H   0  0  0  0  0  0  0  0  0  0  0  0
  -23.4082   -0.0808   -3.5556 H   0  0  0  0  0  0  0  0  0  0  0  0
  -23.5424   -1.3511   -2.2880 H   0  0  0  0  0  0  0  0  0  0  0  0
  -22.4994    0.2178   -0.6040 H   0  0  0  0  0  0  0  0  0  0  0  0
  -22.3672    1.4903   -1.8728 H   0  0  0  0  0  0  0  0  0  0  0  0
  -20.9145   -0.0402   -3.2570 H   0  0  0  0  0  0  0  0  0  0  0  0
  -21.0441   -1.3122   -1.9849 H   0  0  0  0  0  0  0  0  0  0  0  0
  -19.9682    0.2474   -0.3185 H   0  0  0  0  0  0  0  0  0  0  0  0
  -19.8411    1.5178   -1.5878 H   0  0  0  0  0  0  0  0  0  0  0  0
  -18.4258   -0.0333   -2.9969 H   0  0  0  0  0  0  0  0  0  0  0  0
  -18.5500   -1.3010   -1.7253 H   0  0  0  0  0  0  0  0  0  0  0  0
  -17.4675    0.2570   -0.0658 H   0  0  0  0  0  0  0  0  0  0  0  0
  -17.3442    1.5261   -1.3396 H   0  0  0  0  0  0  0  0  0  0  0  0
  -15.8964   -0.0076   -2.7275 H   0  0  0  0  0  0  0  0  0  0  0  0
  -16.0178   -1.2758   -1.4511 H   0  0  0  0  0  0  0  0  0  0  0  0
  -14.9911    0.3130    0.2222 H   0  0  0  0  0  0  0  0  0  0  0  0
  -14.8704    1.5785   -1.0520 H   0  0  0  0  0  0  0  0  0  0  0  0
  -13.3911    0.0563   -2.4230 H   0  0  0  0  0  0  0  0  0  0  0  0
  -13.5100   -1.2079   -1.1458 H   0  0  0  0  0  0  0  0  0  0  0  0
  -12.5227    0.3918    0.5295 H   0  0  0  0  0  0  0  0  0  0  0  0
  -12.4043    1.6566   -0.7495 H   0  0  0  0  0  0  0  0  0  0  0  0
  -10.8479    0.1810   -2.0690 H   0  0  0  0  0  0  0  0  0  0  0  0
  -10.9678   -1.0883   -0.7858 H   0  0  0  0  0  0  0  0  0  0  0  0
   -7.6673    0.5340    1.1565 H   0  0  0  0  0  0  0  0  0  0  0  0
   -7.5307    1.8059   -0.1493 H   0  0  0  0  0  0  0  0  0  0  0  0
   -6.2797    0.1686   -1.5927 H   0  0  0  0  0  0  0  0  0  0  0  0
   -6.4138   -1.0830   -0.3061 H   0  0  0  0  0  0  0  0  0  0  0  0
   -5.2012    0.4412    1.3028 H   0  0  0  0  0  0  0  0  0  0  0  0
   -5.0654    1.6922    0.0139 H   0  0  0  0  0  0  0  0  0  0  0  0
   -3.7533    0.0815   -1.4132 H   0  0  0  0  0  0  0  0  0  0  0  0
   -3.8896   -1.1717   -0.1206 H   0  0  0  0  0  0  0  0  0  0  0  0
   -2.7331    0.3794    1.5017 H   0  0  0  0  0  0  0  0  0  0  0  0
   -2.5949    1.6284    0.2105 H   0  0  0  0  0  0  0  0  0  0  0  0
   -1.2622    0.0169   -1.2058 H   0  0  0  0  0  0  0  0  0  0  0  0
   -1.4011   -1.2326    0.0860 H   0  0  0  0  0  0  0  0  0  0  0  0
   -0.2815    0.3332    1.7207 H   0  0  0  0  0  0  0  0  0  0  0  0
   -0.1409    1.5819    0.4272 H   0  0  0  0  0  0  0  0  0  0  0  0
    1.2363   -0.0088   -0.9573 H   0  0  0  0  0  0  0  0  0  0  0  0
    1.0957   -1.2564    0.3359 H   0  0  0  0  0  0  0  0  0  0  0  0
    2.1995    0.3187    1.9756 H   0  0  0  0  0  0  0  0  0  0  0  0
    2.3402    1.5663    0.6820 H   0  0  0  0  0  0  0  0  0  0  0  0
    3.6979   -0.0370   -0.7184 H   0  0  0  0  0  0  0  0  0  0  0  0
    3.5572   -1.2864    0.5774 H   0  0  0  0  0  0  0  0  0  0  0  0
    4.7014    0.2691    2.2006 H   0  0  0  0  0  0  0  0  0  0  0  0
    4.8417    1.5179    0.9056 H   0  0  0  0  0  0  0  0  0  0  0  0
    6.1788   -0.0963   -0.5049 H   0  0  0  0  0  0  0  0  0  0  0  0
    6.0387   -1.3439    0.7890 H   0  0  0  0  0  0  0  0  0  0  0  0
    7.1865    0.2106    2.4132 H   0  0  0  0  0  0  0  0  0  0  0  0
    7.3267    1.4594    1.1181 H   0  0  0  0  0  0  0  0  0  0  0  0
    8.6730   -0.1493   -0.2870 H   0  0  0  0  0  0  0  0  0  0  0  0
    8.5329   -1.3979    1.0079 H   0  0  0  0  0  0  0  0  0  0  0  0
    9.6766    0.1604    2.6328 H   0  0  0  0  0  0  0  0  0  0  0  0
    9.8166    1.4077    1.3392 H   0  0  0  0  0  0  0  0  0  0  0  0
   11.1690   -0.1980   -0.0617 H   0  0  0  0  0  0  0  0  0  0  0  0
   11.0290   -1.4444    1.2310 H   0  0  0  0  0  0  0  0  0  0  0  0
   12.1778    0.1100    2.8541 H   0  0  0  0  0  0  0  0  0  0  0  0
   12.3177    1.3565    1.5612 H   0  0  0  0  0  0  0  0  0  0  0  0
   13.6724   -0.2479    0.1600 H   0  0  0  0  0  0  0  0  0  0  0  0
   13.5324   -1.4954    1.4538 H   0  0  0  0  0  0  0  0  0  0  0  0
   14.6855    0.0576    3.0763 H   0  0  0  0  0  0  0  0  0  0  0  0
   14.8256    1.3054    1.7821 H   0  0  0  0  0  0  0  0  0  0  0  0
   16.1823   -0.2996    0.3819 H   0  0  0  0  0  0  0  0  0  0  0  0
   16.0422   -1.5470    1.6756 H   0  0  0  0  0  0  0  0  0  0  0  0
   17.1934    0.0071    3.2981 H   0  0  0  0  0  0  0  0  0  0  0  0
   17.3333    1.2539    2.0050 H   0  0  0  0  0  0  0  0  0  0  0  0
   18.6945   -0.3478    0.6080 H   0  0  0  0  0  0  0  0  0  0  0  0
   18.5546   -1.5945    1.9011 H   0  0  0  0  0  0  0  0  0  0  0  0
   19.7005   -0.0379    3.5263 H   0  0  0  0  0  0  0  0  0  0  0  0
   19.8405    1.2093    2.2327 H   0  0  0  0  0  0  0  0  0  0  0  0
   21.1977   -0.3949    0.8328 H   0  0  0  0  0  0  0  0  0  0  0  0
   21.0577   -1.6421    2.1265 H   0  0  0  0  0  0  0  0  0  0  0  0
   22.2126   -0.0896    3.7474 H   0  0  0  0  0  0  0  0  0  0  0  0
   22.3525    1.1567    2.4547 H   0  0  0  0  0  0  0  0  0  0  0  0
   23.7081   -0.4484    1.0544 H   0  0  0  0  0  0  0  0  0  0  0  0
   23.5683   -1.6941    2.3465 H   0  0  0  0  0  0  0  0  0  0  0  0
   24.7285   -0.1437    3.9674 H   0  0  0  0  0  0  0  0  0  0  0  0
   24.8684    1.1026    2.6745 H   0  0  0  0  0  0  0  0  0  0  0  0
   26.2342   -0.4975    1.2795 H   0  0  0  0  0  0  0  0  0  0  0  0
   26.0944   -1.7440    2.5725 H   0  0  0  0  0  0  0  0  0  0  0  0
   27.2781   -0.2022    4.1860 H   0  0  0  0  0  0  0  0  0  0  0  0
   27.4179    1.0433    2.8941 H   0  0  0  0  0  0  0  0  0  0  0  0
   29.5548   -0.2746    3.1086 H   0  0  0  0  0  0  0  0  0  0  0  0
   28.8053   -0.5590    1.4980 H   0  0  0  0  0  0  0  0  0  0  0  0
   28.6653   -1.8059    2.7913 H   0  0  0  0  0  0  0  0  0  0  0  0
  1  2  1  1  0  0  0
  1 49  1  0  0  0  0
  1 50  1  0  0  0  0
  1 51  1  6  0  0  0
  2  3  1  0  0  0  0
  2 52  1  1  0  0  0
  2 53  1  0  0  0  0
  3  4  1  1  0  0  0
  3 54  1  6  0  0  0
  3 55  1  0  0  0  0
  4  5  1  0  0  0  0
  4 56  1  1  0  0  0
  4 57  1  0  0  0  0
  5  6  1  1  0  0  0
  5 58  1  6  0  0  0
  5 59  1  0  0  0  0
  6  7  1  0  0  0  0
  6 60  1  1  0  0  0
  6 61  1  0  0  0  0
  7  8  1  1  0  0  0
  7 62  1  6  0  0  0
  7 63  1  0  0  0  0
  8  9  1  0  0  0  0
  8 64  1  1  0  0  0
  8 65  1  0  0  0  0
  9 10  1  1  0  0  0
  9 66  1  6  0  0  0
  9 67  1  0  0  0  0
 10 11  1  0  0  0  0
 10 68  1  1  0  0  0
 10 69  1  0  0  0  0
 11 12  1  1  0  0  0
 11 70  1  6  0  0  0
 11 71  1  0  0  0  0
 12 13  1  0  0  0  0
 12 72  1  1  0  0  0
 12 73  1  0  0  0  0
 13 14  1  1  0  0  0
 13 74  1  6  0  0  0
 13 75  1  0  0  0  0
 14 15  1  0  0  0  0
 14 76  1  1  0  0  0
 14 77  1  0  0  0  0
 15 16  1  1  0  0  0
 15 78  1  6  0  0  0
 15 79  1  0  0  0  0
 16 17  2  0  0  0  0
 16 18  1  0  0  0  0
 18 19  1  1  0  0  0
 19 20  1  0  0  0  0
 19 80  1  1  0  0  0
 19 81  1  0  0  0  0
 20 21  1  1  0  0  0
 20 82  1  6  0  0  0
 20 83  1  0  0  0  0
 21 22  1  0  0  0  0
 21 84  1  1  0  0  0
 21 85  1  0  0  0  0
 22 23  1  1  0  0  0
 22 86  1  6  0  0  0
 22 87  1  0  0  0  0
 23 24  1  0  0  0  0
 23 88  1  1  0  0  0
 23 89  1  0  0  0  0
 24 25  1  1  0  0  0
 24 90  1  6  0  0  0
 24 91  1  0  0  0  0
 25 26  1  0  0  0  0
 25 92  1  1  0  0  0
 25 93  1  0  0  0  0
 26 27  1  1  0  0  0
 26 94  1  6  0  0  0
 26 95  1  0  0  0  0
 27 28  1  0  0  0  0
 27 96  1  1  0  0  0
 27 97  1  0  0  0  0
 28 29  1  1  0  0  0
 28 98  1  6  0  0  0
 28 99  1  0  0  0  0
 29 30  1  0  0  0  0
 29100  1  1  0  0  0
 29101  1  0  0  0  0
 30 31  1  1  0  0  0
 30102  1  6  0  0  0
 30103  1  0  0  0  0
 31 32  1  0  0  0  0
 31104  1  1  0  0  0
 31105  1  0  0  0  0
 32 33  1  1  0  0  0
 32106  1  6  0  0  0
 32107  1  0  0  0  0
 33 34  1  0  0  0  0
 33108  1  1  0  0  0
 33109  1  0  0  0  0
 34 35  1  1  0  0  0
 34110  1  6  0  0  0
 34111  1  0  0  0  0
 35 36  1  0  0  0  0
 35112  1  1  0  0  0
 35113  1  0  0  0  0
 36 37  1  1  0  0  0
 36114  1  6  0  0  0
 36115  1  0  0  0  0
 37 38  1  0  0  0  0
 37116  1  1  0  0  0
 37117  1  0  0  0  0
 38 39  1  1  0  0  0
 38118  1  6  0  0  0
 38119  1  0  0  0  0
 39 40  1  0  0  0  0
 39120  1  1  0  0  0
 39121  1  0  0  0  0
 40 41  1  1  0  0  0
 40122  1  6  0  0  0
 40123  1  0  0  0  0
 41 42  1  0  0  0  0
 41124  1  1  0  0  0
 41125  1  0  0  0  0
 42 43  1  1  0  0  0
 42126  1  6  0  0  0
 42127  1  0  0  0  0
 43 44  1  0  0  0  0
 43128  1  1  0  0  0
 43129  1  0  0  0  0
 44 45  1  1  0  0  0
 44130  1  6  0  0  0
 44131  1  0  0  0  0
 45 46  1  0  0  0  0
 45132  1  1  0  0  0
 45133  1  0  0  0  0
 46 47  1  1  0  0  0
 46134  1  6  0  0  0
 46135  1  0  0  0  0
 47 48  1  0  0  0  0
 47136  1  1  0  0  0
 47137  1  0  0  0  0
 48138  1  1  0  0  0
 48139  1  6  0  0  0
 48140  1  0  0  0  0
M  END
