Bilirubin
  -ISIS-  12190100413D
Molecules-3D MDL file generator
 79 82  0  0  0  0  0  0  0  0999 V2000
    3.6010   -1.2880    0.4520 C   0  0  0  0  0  0  0  0  0  0  0  0
    2.6040   -2.1310    0.5440 C   0  0  0  0  0  0  0  0  0  0  0  0
    1.5060   -1.5030    0.1440 C   0  0  0  0  0  0  0  0  0  0  0  0
    3.1110   -0.1500   -0.0200 C   0  0  0  0  0  0  0  0  0  0  0  0
    1.8320   -0.2890   -0.1760 N   0  0  3  0  0  0  0  0  0  0  0  0
    4.8680    0.8030   -0.0610 H   0  0  0  0  0  0  0  0  0  0  0  0
    3.9040    0.8910   -0.2690 C   0  0  0  0  0  0  0  0  0  0  0  0
    3.5710    3.9980   -1.6130 C   0  0  0  0  0  0  0  0  0  0  0  0
    4.2950    3.0460   -1.0610 C   0  0  0  0  0  0  0  0  0  0  0  0
    3.4810    2.0330   -0.7980 C   0  0  0  0  0  0  0  0  0  0  0  0
    2.3280    3.5500   -1.6640 C   0  0  0  0  0  0  0  0  0  0  0  0
    2.2930    2.3640   -1.1560 N   0  0  3  0  0  0  0  0  0  0  0  0
   -3.0880    3.6340   -0.3320 C   0  0  0  0  0  0  0  0  0  0  0  0
   -2.1440    4.5590   -0.3700 C   0  0  0  0  0  0  0  0  0  0  0  0
   -1.0040    3.9350   -0.3210 C   0  0  0  0  0  0  0  0  0  0  0  0
   -2.4660    2.4570   -0.2610 C   0  0  0  0  0  0  0  0  0  0  0  0
   -1.2050    2.6710   -0.2520 N   0  0  3  0  0  0  0  0  0  0  0  0
   -4.0600    1.2450   -0.2260 H   0  0  0  0  0  0  0  0  0  0  0  0
   -3.0700    1.2750   -0.2100 C   0  0  0  0  0  0  0  0  0  0  0  0
    0.2230   -2.1760    0.1400 C   0  0  0  0  0  0  0  0  0  0  0  0
    0.0810   -2.6590    1.1050 H   0  0  0  0  0  0  0  0  0  0  0  0
   -1.1240   -0.1070   -0.1020 N   0  0  3  0  0  0  0  0  0  0  0  0
   -0.9420   -1.3830    0.0050 C   0  0  0  0  0  0  0  0  0  0  0  0
   -2.4040    0.1200   -0.1350 C   0  0  0  0  0  0  0  0  0  0  0  0
   -3.0360   -1.0430   -0.0660 C   0  0  0  0  0  0  0  0  0  0  0  0
   -2.1260   -1.9780    0.0130 C   0  0  0  0  0  0  0  0  0  0  0  0
    1.2430    0.3730   -0.4780 H   0  0  0  0  0  0  0  0  0  0  0  0
    1.5290    1.8290   -1.0680 H   0  0  0  0  0  0  0  0  0  0  0  0
   -0.5410    2.0170   -0.2010 H   0  0  0  0  0  0  0  0  0  0  0  0
   -0.4490    0.5390   -0.1360 H   0  0  0  0  0  0  0  0  0  0  0  0
   -2.8100    6.3530    0.4130 H   0  0  0  0  0  0  0  0  0  0  0  0
   -1.2580    6.4050   -0.4590 H   0  0  0  0  0  0  0  0  0  0  0  0
   -2.7810    6.2550   -1.3670 H   0  0  0  0  0  0  0  0  0  0  0  0
   -2.2620    5.9770   -0.4500 C   0  0  0  0  0  0  0  0  0  0  0  0
   -4.7310    4.7860   -0.4110 H   0  0  0  0  0  0  0  0  0  0  0  0
   -4.3900    3.8570   -0.3570 C   0  0  0  0  0  0  0  0  0  0  0  0
   -6.2100    2.9960   -0.3240 H   0  0  0  0  0  0  0  0  0  0  0  0
   -4.8850    1.9090   -0.2540 H   0  0  0  0  0  0  0  0  0  0  0  0
   -5.2340    2.8330   -0.3090 C   0  0  0  0  0  0  0  0  0  0  0  0
   -4.8770   -0.8240   -0.9770 H   0  0  0  0  0  0  0  0  0  0  0  0
   -4.6820   -2.2890    0.0170 H   0  0  0  0  0  0  0  0  0  0  0  0
   -4.8760   -0.7040    0.7990 H   0  0  0  0  0  0  0  0  0  0  0  0
   -4.4530   -1.2270   -0.0600 C   0  0  0  0  0  0  0  0  0  0  0  0
   -1.9020   -3.7690    1.0270 H   0  0  0  0  0  0  0  0  0  0  0  0
   -1.8810   -3.8810   -0.7480 H   0  0  0  0  0  0  0  0  0  0  0  0
   -2.3460   -3.3880    0.1070 C   0  0  0  0  0  0  0  0  0  0  0  0
   -4.2930   -3.3040   -0.8100 H   0  0  0  0  0  0  0  0  0  0  0  0
   -4.3100   -3.2040    0.9660 H   0  0  0  0  0  0  0  0  0  0  0  0
   -3.8450   -3.6850    0.1070 C   0  0  0  0  0  0  0  0  0  0  0  0
   -4.6530   -5.5820    1.1200 O   0  0  0  0  0  0  0  0  0  0  0  0
   -4.0410   -5.0980    0.1830 C   0  0  0  0  0  0  0  0  0  0  0  0
   -3.8060   -6.7880   -0.4840 H   0  0  0  0  0  0  0  0  0  0  0  0
   -3.5570   -5.8830   -0.7620 O   0  0  0  0  0  0  0  0  0  0  0  0
    1.9880   -3.5770    1.8680 H   0  0  0  0  0  0  0  0  0  0  0  0
    2.3240   -4.1570    0.2200 H   0  0  0  0  0  0  0  0  0  0  0  0
    2.6530   -3.4810    1.0080 C   0  0  0  0  0  0  0  0  0  0  0  0
    4.3980   -3.1630    2.2290 H   0  0  0  0  0  0  0  0  0  0  0  0
    4.7510   -3.7690    0.5930 H   0  0  0  0  0  0  0  0  0  0  0  0
    4.0730   -3.8460    1.4440 C   0  0  0  0  0  0  0  0  0  0  0  0
    3.3770   -5.4660    2.9100 O   0  0  0  0  0  0  0  0  0  0  0  0
    4.0750   -5.1810    1.9500 C   0  0  0  0  0  0  0  0  0  0  0  0
    4.6430   -6.9160    1.9020 H   0  0  0  0  0  0  0  0  0  0  0  0
    4.8280   -6.1040    1.3850 O   0  0  0  0  0  0  0  0  0  0  0  0
    5.3530   -2.3630    0.1900 H   0  0  0  0  0  0  0  0  0  0  0  0
    5.5580   -0.6430    0.6080 H   0  0  0  0  0  0  0  0  0  0  0  0
    5.0320   -1.8020    1.8500 H   0  0  0  0  0  0  0  0  0  0  0  0
    4.9670   -1.5400    0.7930 C   0  0  0  0  0  0  0  0  0  0  0  0
    5.9040    3.9580   -0.1590 H   0  0  0  0  0  0  0  0  0  0  0  0
    6.0360    2.1920   -0.3640 H   0  0  0  0  0  0  0  0  0  0  0  0
    6.2100    3.2700   -1.7730 H   0  0  0  0  0  0  0  0  0  0  0  0
    5.6960    3.1180   -0.8230 C   0  0  0  0  0  0  0  0  0  0  0  0
    4.9850    5.4020   -1.9430 H   0  0  0  0  0  0  0  0  0  0  0  0
    4.0250    5.1740   -2.0360 C   0  0  0  0  0  0  0  0  0  0  0  0
    3.5050    6.9160   -2.9100 H   0  0  0  0  0  0  0  0  0  0  0  0
    2.2320    5.7980   -2.6760 H   0  0  0  0  0  0  0  0  0  0  0  0
    3.1830    6.0390   -2.5880 C   0  0  0  0  0  0  0  0  0  0  0  0
    0.0570    4.5140   -0.3390 O   0  0  0  0  0  0  0  0  0  0  0  0
    1.3900    4.1710   -2.1220 O   0  0  0  0  0  0  0  0  0  0  0  0
    0.1930   -2.9400   -0.6390 H   0  0  0  0  0  0  0  0  0  0  0  0
  1  2  1  0  0  0  0
  1  4  2  0  0  0  0
  1 67  1  0  0  0  0
  2  3  2  0  0  0  0
  2 56  1  0  0  0  0
  3  5  1  0  0  0  0
  3 20  1  0  0  0  0
  4  5  1  0  0  0  0
  4  7  1  0  0  0  0
  5 27  1  0  0  0  0
  6  7  1  0  0  0  0
  7 10  2  0  0  0  0
  8  9  2  0  0  0  0
  8 11  1  0  0  0  0
  8 73  1  0  0  0  0
  9 10  1  0  0  0  0
  9 71  1  0  0  0  0
 10 12  1  0  0  0  0
 11 12  1  0  0  0  0
 11 78  2  0  0  0  0
 12 28  1  0  0  0  0
 13 14  2  0  0  0  0
 13 16  1  0  0  0  0
 13 36  1  0  0  0  0
 14 15  1  0  0  0  0
 14 34  1  0  0  0  0
 15 17  1  0  0  0  0
 15 77  2  0  0  0  0
 16 17  1  0  0  0  0
 16 19  2  0  0  0  0
 17 29  1  0  0  0  0
 18 19  1  0  0  0  0
 19 24  1  0  0  0  0
 20 21  1  0  0  0  0
 20 23  1  0  0  0  0
 20 79  1  0  0  0  0
 22 23  1  0  0  0  0
 22 24  1  0  0  0  0
 22 30  1  0  0  0  0
 23 26  2  0  0  0  0
 24 25  2  0  0  0  0
 25 26  1  0  0  0  0
 25 43  1  0  0  0  0
 26 46  1  0  0  0  0
 31 34  1  0  0  0  0
 32 34  1  0  0  0  0
 33 34  1  0  0  0  0
 35 36  1  0  0  0  0
 36 39  2  0  0  0  0
 37 39  1  0  0  0  0
 38 39  1  0  0  0  0
 40 43  1  0  0  0  0
 41 43  1  0  0  0  0
 42 43  1  0  0  0  0
 44 46  1  0  0  0  0
 45 46  1  0  0  0  0
 46 49  1  0  0  0  0
 47 49  1  0  0  0  0
 48 49  1  0  0  0  0
 49 51  1  0  0  0  0
 50 51  2  0  0  0  0
 51 53  1  0  0  0  0
 52 53  1  0  0  0  0
 54 56  1  0  0  0  0
 55 56  1  0  0  0  0
 56 59  1  0  0  0  0
 57 59  1  0  0  0  0
 58 59  1  0  0  0  0
 59 61  1  0  0  0  0
 60 61  2  0  0  0  0
 61 63  1  0  0  0  0
 62 63  1  0  0  0  0
 64 67  1  0  0  0  0
 65 67  1  0  0  0  0
 66 67  1  0  0  0  0
 68 71  1  0  0  0  0
 69 71  1  0  0  0  0
 70 71  1  0  0  0  0
 72 73  1  0  0  0  0
 73 76  2  0  0  0  0
 74 76  1  0  0  0  0
 75 76  1  0  0  0  0
M  END
