Chlorophyll
  -ISIS-  12190100413D
Molecules-3D MDL file generator
137145  0  0  0  0  0  0  0  0999 V2000
    1.2160   -3.5520    6.7470 C   0  0  0  0  0  0  0  0  0  0  0  0
    1.3310   -2.4930    6.9750 H   0  0  0  0  0  0  0  0  0  0  0  0
    2.1620   -3.9490    6.3840 H   0  0  0  0  0  0  0  0  0  0  0  0
    0.9470   -4.0860    7.6590 H   0  0  0  0  0  0  0  0  0  0  0  0
   -1.2720   -3.3770    6.2780 C   0  0  0  0  0  0  0  0  0  0  0  0
   -1.2660   -2.3490    6.6340 H   0  0  0  0  0  0  0  0  0  0  0  0
   -1.4970   -4.0390    7.1160 H   0  0  0  0  0  0  0  0  0  0  0  0
   -2.0530   -3.4890    5.5220 H   0  0  0  0  0  0  0  0  0  0  0  0
    0.1060   -3.7520    5.6750 C   0  0  3  0  0  0  0  0  0  0  0  0
    0.0780   -4.8080    5.4000 H   0  0  0  0  0  0  0  0  0  0  0  0
    0.3720   -2.9080    4.3940 C   0  0  0  0  0  0  0  0  0  0  0  0
    0.4660   -1.8580    4.6620 H   0  0  0  0  0  0  0  0  0  0  0  0
   -0.4780   -3.0210    3.7220 H   0  0  0  0  0  0  0  0  0  0  0  0
    1.6500   -3.3150    3.6340 C   0  0  0  0  0  0  0  0  0  0  0  0
    1.5220   -4.2460    3.4280 H   0  0  0  0  0  0  0  0  0  0  0  0
    2.5250   -3.1580    4.2560 H   0  0  0  0  0  0  0  0  0  0  0  0
    1.8000   -2.5650    2.2970 C   0  0  0  0  0  0  0  0  0  0  0  0
    0.8720   -2.6800    1.7370 H   0  0  0  0  0  0  0  0  0  0  0  0
    1.9410   -1.5050    2.5160 H   0  0  0  0  0  0  0  0  0  0  0  0
    4.3530   -2.6990    2.0530 C   0  0  0  0  0  0  0  0  0  0  0  0
    5.1720   -3.0710    1.4410 H   0  0  0  0  0  0  0  0  0  0  0  0
    4.4440   -3.1400    3.0440 H   0  0  0  0  0  0  0  0  0  0  0  0
    4.4410   -1.6140    2.1380 H   0  0  0  0  0  0  0  0  0  0  0  0
    2.9840   -3.0770    1.4190 C   0  0  3  0  0  0  0  0  0  0  0  0
    2.9160   -4.1640    1.3590 H   0  0  0  0  0  0  0  0  0  0  0  0
    2.8560   -2.5050   -0.0280 C   0  0  0  0  0  0  0  0  0  0  0  0
    3.1440   -1.4550   -0.0250 H   0  0  0  0  0  0  0  0  0  0  0  0
    1.8130   -2.5770   -0.3410 H   0  0  0  0  0  0  0  0  0  0  0  0
    3.7250   -3.2830   -1.0560 C   0  0  0  0  0  0  0  0  0  0  0  0
    3.4220   -4.3300   -1.0720 H   0  0  0  0  0  0  0  0  0  0  0  0
    4.7690   -3.2390   -0.7410 H   0  0  0  0  0  0  0  0  0  0  0  0
    3.6560   -2.6960   -2.4940 C   0  0  0  0  0  0  0  0  0  0  0  0
    3.9500   -1.6430   -2.4380 H   0  0  0  0  0  0  0  0  0  0  0  0
    4.4030   -3.2150   -3.1030 H   0  0  0  0  0  0  0  0  0  0  0  0
    1.8840   -4.2770   -3.4810 C   0  0  0  0  0  0  0  0  0  0  0  0
    0.8970   -4.3300   -3.9470 H   0  0  0  0  0  0  0  0  0  0  0  0
    1.8410   -4.8320   -2.5470 H   0  0  0  0  0  0  0  0  0  0  0  0
    2.6090   -4.7430   -4.1410 H   0  0  0  0  0  0  0  0  0  0  0  0
    2.2750   -2.7990   -3.2130 C   0  0  3  0  0  0  0  0  0  0  0  0
    1.5090   -2.3550   -2.5720 H   0  0  0  0  0  0  0  0  0  0  0  0
    2.3340   -1.9680   -4.5340 C   0  0  0  0  0  0  0  0  0  0  0  0
    3.0690   -2.4210   -5.2060 H   0  0  0  0  0  0  0  0  0  0  0  0
    2.6720   -0.9580   -4.2910 H   0  0  0  0  0  0  0  0  0  0  0  0
    0.9750   -1.8550   -5.2720 C   0  0  0  0  0  0  0  0  0  0  0  0
    0.2160   -1.4890   -4.5780 H   0  0  0  0  0  0  0  0  0  0  0  0
    0.6780   -2.8430   -5.6310 H   0  0  0  0  0  0  0  0  0  0  0  0
    1.0720   -0.8830   -6.4780 C   0  0  0  0  0  0  0  0  0  0  0  0
    1.2500    0.1230   -6.1060 H   0  0  0  0  0  0  0  0  0  0  0  0
    1.9280   -1.1650   -7.0970 H   0  0  0  0  0  0  0  0  0  0  0  0
   -0.3000   -2.0610   -8.3370 C   0  0  0  0  0  0  0  0  0  0  0  0
   -0.3220   -3.0150   -7.8060 H   0  0  0  0  0  0  0  0  0  0  0  0
    0.5530   -2.0520   -9.0160 H   0  0  0  0  0  0  0  0  0  0  0  0
   -1.2120   -1.9710   -8.9250 H   0  0  0  0  0  0  0  0  0  0  0  0
   -0.1720   -0.9240   -7.3470 C   0  0  0  0  0  0  0  0  0  0  0  0
   -1.1660   -0.0110   -7.2720 C   0  0  0  0  0  0  0  0  0  0  0  0
   -2.0030   -0.1300   -7.9000 H   0  0  0  0  0  0  0  0  0  0  0  0
   -1.2000    1.1450   -6.3030 C   0  0  0  0  0  0  0  0  0  0  0  0
   -2.0280    1.8040   -6.5630 H   0  0  0  0  0  0  0  0  0  0  0  0
   -0.2780    1.7200   -6.3720 H   0  0  0  0  0  0  0  0  0  0  0  0
   -1.6810   -2.9140   -0.1250 C   0  0  0  0  0  0  0  0  0  0  0  0
   -1.8280   -3.3110   -1.1310 H   0  0  0  0  0  0  0  0  0  0  0  0
   -2.3590   -3.4300    0.5530 H   0  0  0  0  0  0  0  0  0  0  0  0
   -0.6560   -3.1020    0.1780 H   0  0  0  0  0  0  0  0  0  0  0  0
   -1.3500    0.6640   -5.0030 O   0  0  0  0  0  0  0  0  0  0  0  0
   -2.5250    0.3290   -4.4060 C   0  0  0  0  0  0  0  0  0  0  0  0
   -3.6030    0.4920   -4.9720 O   0  0  0  0  0  0  0  0  0  0  0  0
   -2.4630   -0.4710   -3.1310 C   0  0  0  0  0  0  0  0  0  0  0  0
   -1.9090   -1.3900   -3.3380 H   0  0  0  0  0  0  0  0  0  0  0  0
   -3.4720   -0.7400   -2.8130 H   0  0  0  0  0  0  0  0  0  0  0  0
   -1.7560    0.3290   -2.0090 C   0  0  0  0  0  0  0  0  0  0  0  0
   -1.0340    0.9980   -2.4690 H   0  0  0  0  0  0  0  0  0  0  0  0
   -2.4870    0.9420   -1.4780 H   0  0  0  0  0  0  0  0  0  0  0  0
    0.1030    4.0170   -2.9590 C   0  0  0  0  0  0  0  0  0  0  0  0
    0.8630    4.4180   -3.6310 H   0  0  0  0  0  0  0  0  0  0  0  0
   -0.3030    4.8320   -2.3590 H   0  0  0  0  0  0  0  0  0  0  0  0
   -0.6940    3.5670   -3.5440 H   0  0  0  0  0  0  0  0  0  0  0  0
    0.6690    3.0670   -2.1090 O   0  0  0  0  0  0  0  0  0  0  0  0
    1.2720    1.9260   -2.5340 C   0  0  0  0  0  0  0  0  0  0  0  0
    1.3940    1.6790   -3.7370 O   0  0  0  0  0  0  0  0  0  0  0  0
    1.7280    0.8980   -1.5310 C   0  0  3  0  0  0  0  0  0  0  0  0
    1.7910   -0.0860   -1.9810 H   0  0  0  0  0  0  0  0  0  0  0  0
    3.0910    1.3200   -0.9780 C   0  0  0  0  0  0  0  0  0  0  0  0
    4.1410    0.8510   -1.4160 O   0  0  0  0  0  0  0  0  0  0  0  0
    5.2410    1.6480    1.7000 C   0  0  0  0  0  0  0  0  0  0  0  0
    5.7060    0.6790    1.8750 H   0  0  0  0  0  0  0  0  0  0  0  0
    5.5060    2.3290    2.5130 H   0  0  0  0  0  0  0  0  0  0  0  0
    5.6160    2.0610    0.7620 H   0  0  0  0  0  0  0  0  0  0  0  0
    4.6190    1.6070    7.4190 C   0  0  0  0  0  0  0  0  0  0  0  0
    4.7310    2.2790    6.5660 H   0  0  0  0  0  0  0  0  0  0  0  0
    5.6030    1.4110    7.8470 H   0  0  0  0  0  0  0  0  0  0  0  0
    3.9940    2.0890    8.1720 H   0  0  0  0  0  0  0  0  0  0  0  0
    3.9780    0.2760    6.9660 C   0  0  0  0  0  0  0  0  0  0  0  0
    4.6310   -0.2020    6.2340 H   0  0  0  0  0  0  0  0  0  0  0  0
    3.8970   -0.3890    7.8250 H   0  0  0  0  0  0  0  0  0  0  0  0
    1.1840    0.3070    8.4660 C   0  0  0  0  0  0  0  0  0  0  0  0
    0.6000   -0.5990    8.6130 H   0  0  0  0  0  0  0  0  0  0  0  0
    0.6280    1.1610    8.8590 H   0  0  0  0  0  0  0  0  0  0  0  0
    2.1190    0.2200    9.0160 H   0  0  0  0  0  0  0  0  0  0  0  0
   -4.0340    1.1290    7.6220 C   0  0  0  0  0  0  0  0  0  0  0  0
   -4.6000    1.1980    8.5030 H   0  0  0  0  0  0  0  0  0  0  0  0
   -3.4870    1.9640    7.2940 H   0  0  0  0  0  0  0  0  0  0  0  0
   -4.0370   -0.0050    6.9090 C   0  0  0  0  0  0  0  0  0  0  0  0
   -4.5940   -0.8050    7.2530 H   0  0  0  0  0  0  0  0  0  0  0  0
   -5.1090   -1.3580    4.3220 C   0  0  0  0  0  0  0  0  0  0  0  0
   -4.9940   -2.4020    4.0220 H   0  0  0  0  0  0  0  0  0  0  0  0
   -5.6310   -0.8150    3.5370 H   0  0  0  0  0  0  0  0  0  0  0  0
   -5.7060   -1.3210    5.2310 H   0  0  0  0  0  0  0  0  0  0  0  0
   -1.0220    0.6640    6.3130 C   0  0  0  0  0  0  0  0  0  0  0  0
   -1.3220    0.7980    7.3060 H   0  0  0  0  0  0  0  0  0  0  0  0
   -1.9840   -1.3930   -0.1190 C   0  0  3  0  0  0  0  0  0  0  0  0
   -1.0060   -0.5930   -1.0130 C   0  0  3  0  0  0  0  0  0  0  0  0
   -0.2280    0.1790    0.0250 C   0  0  0  0  0  0  0  0  0  0  0  0
   -1.7840   -0.7800    1.2500 C   0  0  0  0  0  0  0  0  0  0  0  0
   -0.7840    0.0290    1.3470 N   0  0  3  0  0  0  0  0  0  0  0  0
   -3.7340   -1.4360    1.9280 H   0  0  0  0  0  0  0  0  0  0  0  0
   -2.8250   -1.0110    2.2440 C   0  0  0  0  0  0  0  0  0  0  0  0
   -2.6880   -0.6550    3.5220 C   0  0  0  0  0  0  0  0  0  0  0  0
   -3.7470   -0.7520    4.5410 C   0  0  0  0  0  0  0  0  0  0  0  0
   -3.2970   -0.1550    5.6560 C   0  0  0  0  0  0  0  0  0  0  0  0
   -1.9000    0.2320    5.4030 C   0  0  0  0  0  0  0  0  0  0  0  0
   -1.5310   -0.0800    4.0750 N   0  0  3  0  0  0  0  0  0  0  0  0
    0.8910    0.8570   -0.2590 C   0  0  0  0  0  0  0  0  0  0  0  0
    1.6690    1.4170    0.8030 C   0  0  0  0  0  0  0  0  0  0  0  0
    2.9280    1.6540    0.4340 C   0  0  0  0  0  0  0  0  0  0  0  0
    3.7500    1.4920    1.6310 C   0  0  0  0  0  0  0  0  0  0  0  0
    2.9000    1.1980    2.6410 C   0  0  0  0  0  0  0  0  0  0  0  0
    1.5840    1.0790    2.1440 N   0  0  3  0  0  0  0  0  0  0  0  0
    4.2750    0.8850    4.2780 H   0  0  0  0  0  0  0  0  0  0  0  0
    3.2590    0.9290    4.0120 C   0  0  0  0  0  0  0  0  0  0  0  0
    2.3130    0.7480    4.9410 C   0  0  0  0  0  0  0  0  0  0  0  0
    2.6160    0.5040    6.3590 C   0  0  0  0  0  0  0  0  0  0  0  0
    1.4340    0.5070    6.9940 C   0  0  0  0  0  0  0  0  0  0  0  0
    0.3910    0.7100    5.9750 C   0  0  0  0  0  0  0  0  0  0  0  0
    0.8940    0.8170    4.7840 N   0  0  3  0  0  0  0  0  0  0  0  0
   -3.0160   -1.2390   -0.4380 H   0  0  0  0  0  0  0  0  0  0  0  0
   -0.2530    1.1860    3.0560 Mg  0  0  0  0  0  0  0  0  0  0  0  0
   -0.3310   -1.2580   -1.5530 H   0  0  0  0  0  0  0  0  0  0  0  0
  1  2  1  0  0  0  0
  1  3  1  0  0  0  0
  1  4  1  0  0  0  0
  1  9  1  0  0  0  0
  5  6  1  0  0  0  0
  5  7  1  0  0  0  0
  5  8  1  0  0  0  0
  5  9  1  0  0  0  0
  9 10  1  0  0  0  0
  9 11  1  0  0  0  0
 11 12  1  0  0  0  0
 11 13  1  0  0  0  0
 11 14  1  0  0  0  0
 14 15  1  0  0  0  0
 14 16  1  0  0  0  0
 14 17  1  0  0  0  0
 17 18  1  0  0  0  0
 17 19  1  0  0  0  0
 17 24  1  0  0  0  0
 20 21  1  0  0  0  0
 20 22  1  0  0  0  0
 20 23  1  0  0  0  0
 20 24  1  0  0  0  0
 24 25  1  0  0  0  0
 24 26  1  0  0  0  0
 26 27  1  0  0  0  0
 26 28  1  0  0  0  0
 26 29  1  0  0  0  0
 29 30  1  0  0  0  0
 29 31  1  0  0  0  0
 29 32  1  0  0  0  0
 32 33  1  0  0  0  0
 32 34  1  0  0  0  0
 32 39  1  0  0  0  0
 35 36  1  0  0  0  0
 35 37  1  0  0  0  0
 35 38  1  0  0  0  0
 35 39  1  0  0  0  0
 39 40  1  0  0  0  0
 39 41  1  0  0  0  0
 41 42  1  0  0  0  0
 41 43  1  0  0  0  0
 41 44  1  0  0  0  0
 44 45  1  0  0  0  0
 44 46  1  0  0  0  0
 44 47  1  0  0  0  0
 47 48  1  0  0  0  0
 47 49  1  0  0  0  0
 47 54  1  0  0  0  0
 50 51  1  0  0  0  0
 50 52  1  0  0  0  0
 50 53  1  0  0  0  0
 50 54  1  0  0  0  0
 54 55  2  0  0  0  0
 55 56  1  0  0  0  0
 55 57  1  0  0  0  0
 57 58  1  0  0  0  0
 57 59  1  0  0  0  0
 57 64  1  0  0  0  0
 60 61  1  0  0  0  0
 60 62  1  0  0  0  0
 60 63  1  0  0  0  0
 60110  1  0  0  0  0
 64 65  1  0  0  0  0
 65 66  2  0  0  0  0
 65 67  1  0  0  0  0
 67 68  1  0  0  0  0
 67 69  1  0  0  0  0
 67 70  1  0  0  0  0
 70 71  1  0  0  0  0
 70 72  1  0  0  0  0
 70111  1  0  0  0  0
 73 74  1  0  0  0  0
 73 75  1  0  0  0  0
 73 76  1  0  0  0  0
 73 77  1  0  0  0  0
 77 78  1  0  0  0  0
 78 79  2  0  0  0  0
 78 80  1  0  0  0  0
 80 81  1  0  0  0  0
 80 82  1  0  0  0  0
 80122  1  0  0  0  0
 82 83  2  0  0  0  0
 82124  1  0  0  0  0
 84 85  1  0  0  0  0
 84 86  1  0  0  0  0
 84 87  1  0  0  0  0
 84125  1  0  0  0  0
 88 89  1  0  0  0  0
 88 90  1  0  0  0  0
 88 91  1  0  0  0  0
 88 92  1  0  0  0  0
 92 93  1  0  0  0  0
 92 94  1  0  0  0  0
 92131  1  0  0  0  0
 95 96  1  0  0  0  0
 95 97  1  0  0  0  0
 95 98  1  0  0  0  0
 95132  1  0  0  0  0
 99100  1  0  0  0  0
 99101  1  0  0  0  0
 99102  2  0  0  0  0
102103  1  0  0  0  0
102119  1  0  0  0  0
104105  1  0  0  0  0
104106  1  0  0  0  0
104107  1  0  0  0  0
104118  1  0  0  0  0
108109  1  0  0  0  0
108120  2  0  0  0  0
108133  1  0  0  0  0
110111  1  0  0  0  0
110113  1  0  0  0  0
110135  1  0  0  0  0
111112  1  0  0  0  0
111137  1  0  0  0  0
112114  1  0  0  0  0
112122  2  0  0  0  0
113114  2  0  0  0  0
113116  1  0  0  0  0
114136  1  0  0  0  0
115116  1  0  0  0  0
116117  2  0  0  0  0
117118  1  0  0  0  0
117121  1  0  0  0  0
118119  2  0  0  0  0
119120  1  0  0  0  0
120121  1  0  0  0  0
121136  1  0  0  0  0
122123  1  0  0  0  0
123124  2  0  0  0  0
123127  1  0  0  0  0
124125  1  0  0  0  0
125126  2  0  0  0  0
126127  1  0  0  0  0
126129  1  0  0  0  0
127136  1  0  0  0  0
128129  1  0  0  0  0
129130  2  0  0  0  0
130131  1  0  0  0  0
130134  1  0  0  0  0
131132  2  0  0  0  0
132133  1  0  0  0  0
133134  2  0  0  0  0
134136  1  0  0  0  0
M  END
