Porphyrin
  -ISIS-  12190100413D
Molecules-3D MDL file generator
 76 80  0  0  0  0  0  0  0  0999 V2000
    3.1970    1.0120   -0.9190 C   0  0  0  0  0  0  0  0  0  0  0  0
    4.0010    1.1190   -0.3500 H   0  0  0  0  0  0  0  0  0  0  0  0
   -5.1280   -5.8390   -1.6590 O   0  0  0  0  0  0  0  0  0  0  0  0
   -4.2130   -5.2630   -1.0920 C   0  0  0  0  0  0  0  0  0  0  0  0
   -3.1150   -6.6320   -0.5710 H   0  0  0  0  0  0  0  0  0  0  0  0
   -3.5470   -5.8710   -0.1290 O   0  0  0  0  0  0  0  0  0  0  0  0
   -3.4830   -4.0160   -2.5710 H   0  0  0  0  0  0  0  0  0  0  0  0
   -4.6480   -3.2740   -1.4490 H   0  0  0  0  0  0  0  0  0  0  0  0
   -3.8070   -3.9630   -1.5320 C   0  0  0  0  0  0  0  0  0  0  0  0
   -1.8970   -4.2470   -0.5770 H   0  0  0  0  0  0  0  0  0  0  0  0
   -3.0250   -3.2110    0.3290 H   0  0  0  0  0  0  0  0  0  0  0  0
   -2.6510   -3.4650   -0.6620 C   0  0  0  0  0  0  0  0  0  0  0  0
   -2.0700   -2.3050   -1.2650 C   0  0  0  0  0  0  0  0  0  0  0  0
   -2.8470   -1.3320   -1.7190 C   0  0  0  0  0  0  0  0  0  0  0  0
   -2.2300   -0.1900   -1.4370 C   0  0  0  0  0  0  0  0  0  0  0  0
   -1.0150   -1.7250   -0.7050 C   0  0  0  0  0  0  0  0  0  0  0  0
   -1.1400   -0.4590   -0.8190 N   0  0  0  0  0  0  0  0  0  0  0  0
   -4.5110   -2.1800   -0.8340 H   0  0  0  0  0  0  0  0  0  0  0  0
   -4.6680   -0.4630   -1.2750 H   0  0  0  0  0  0  0  0  0  0  0  0
   -4.7040   -1.7140   -2.5410 H   0  0  0  0  0  0  0  0  0  0  0  0
   -4.2670   -1.4280   -1.5840 C   0  0  0  0  0  0  0  0  0  0  0  0
    0.2920   -3.1570   -1.2610 H   0  0  0  0  0  0  0  0  0  0  0  0
    0.1880   -2.2860   -0.8040 C   0  0  0  0  0  0  0  0  0  0  0  0
    1.2650   -1.5870   -0.4600 C   0  0  0  0  0  0  0  0  0  0  0  0
    2.4510   -2.1780   -0.3760 C   0  0  0  0  0  0  0  0  0  0  0  0
    3.3520   -1.2880   -0.7680 C   0  0  0  0  0  0  0  0  0  0  0  0
    2.6800   -0.1970   -1.1180 C   0  0  0  0  0  0  0  0  0  0  0  0
    0.8860    0.2960   -0.6190 H   0  0  0  0  0  0  0  0  0  0  0  0
    1.4330   -0.4020   -0.9160 N   0  0  3  0  0  0  0  0  0  0  0  0
    1.9500   -3.8170    0.7790 H   0  0  0  0  0  0  0  0  0  0  0  0
    2.7900   -2.5030    1.6370 H   0  0  0  0  0  0  0  0  0  0  0  0
    2.7380   -3.0680    0.7060 C   0  0  0  0  0  0  0  0  0  0  0  0
    4.8640   -3.0120    0.3580 H   0  0  0  0  0  0  0  0  0  0  0  0
    4.0200   -4.3460   -0.4650 H   0  0  0  0  0  0  0  0  0  0  0  0
    4.0790   -3.7620    0.4550 C   0  0  0  0  0  0  0  0  0  0  0  0
    5.4150   -5.2780    1.5490 O   0  0  0  0  0  0  0  0  0  0  0  0
    4.3820   -4.6280    1.5530 C   0  0  0  0  0  0  0  0  0  0  0  0
    2.9330   -5.4400    2.3240 H   0  0  0  0  0  0  0  0  0  0  0  0
    3.5480   -4.7180    2.5710 O   0  0  0  0  0  0  0  0  0  0  0  0
    4.3900   -1.1990    1.0180 H   0  0  0  0  0  0  0  0  0  0  0  0
    5.2470   -1.9880   -0.3280 H   0  0  0  0  0  0  0  0  0  0  0  0
    5.0600   -0.2170   -0.3080 H   0  0  0  0  0  0  0  0  0  0  0  0
    4.5860   -1.1660   -0.0550 C   0  0  0  0  0  0  0  0  0  0  0  0
   -3.7830    0.7970   -0.6120 H   0  0  0  0  0  0  0  0  0  0  0  0
   -2.9350    0.8910   -1.1130 C   0  0  0  0  0  0  0  0  0  0  0  0
   -2.4130    2.1000   -1.3090 C   0  0  0  0  0  0  0  0  0  0  0  0
   -3.0930    3.1870   -0.9560 C   0  0  0  0  0  0  0  0  0  0  0  0
   -2.2110    4.0670   -0.5150 C   0  0  0  0  0  0  0  0  0  0  0  0
   -1.0200    3.4820   -0.5860 C   0  0  0  0  0  0  0  0  0  0  0  0
   -0.6270    1.6060   -0.7840 H   0  0  0  0  0  0  0  0  0  0  0  0
   -1.1710    2.3070   -1.0760 N   0  0  3  0  0  0  0  0  0  0  0  0
   -4.7260    2.9220   -2.1070 H   0  0  0  0  0  0  0  0  0  0  0  0
   -4.1330    3.5900   -1.6820 C   0  0  0  0  0  0  0  0  0  0  0  0
   -5.4150    5.1460   -1.6490 H   0  0  0  0  0  0  0  0  0  0  0  0
   -3.7550    5.5710   -1.7190 H   0  0  0  0  0  0  0  0  0  0  0  0
   -4.4620    4.8780   -1.7060 C   0  0  0  0  0  0  0  0  0  0  0  0
   -1.8590    5.6430   -1.8070 H   0  0  0  0  0  0  0  0  0  0  0  0
   -3.4090    5.6990   -0.9320 H   0  0  0  0  0  0  0  0  0  0  0  0
   -1.8920    6.0620   -0.0770 H   0  0  0  0  0  0  0  0  0  0  0  0
   -2.3500    5.4500   -0.8530 C   0  0  0  0  0  0  0  0  0  0  0  0
   -0.0230    5.0460   -1.3700 H   0  0  0  0  0  0  0  0  0  0  0  0
    0.0650    4.1920   -0.8770 C   0  0  0  0  0  0  0  0  0  0  0  0
    1.2660    3.6500   -0.6980 C   0  0  0  0  0  0  0  0  0  0  0  0
    2.3390    4.2040   -1.2550 C   0  0  0  0  0  0  0  0  0  0  0  0
    3.1320    3.2090   -1.6270 C   0  0  0  0  0  0  0  0  0  0  0  0
    2.5090    2.0830   -1.3030 C   0  0  0  0  0  0  0  0  0  0  0  0
    1.4020    2.3770   -0.7350 N   0  0  0  0  0  0  0  0  0  0  0  0
    2.3200    5.8750   -0.1310 H   0  0  0  0  0  0  0  0  0  0  0  0
    2.8590    5.3120   -0.7410 C   0  0  0  0  0  0  0  0  0  0  0  0
    4.2210    6.6320   -1.4220 H   0  0  0  0  0  0  0  0  0  0  0  0
    4.8280    5.0630   -1.0910 H   0  0  0  0  0  0  0  0  0  0  0  0
    4.0750    5.7050   -1.1070 C   0  0  0  0  0  0  0  0  0  0  0  0
    5.0560    2.7430   -2.2210 H   0  0  0  0  0  0  0  0  0  0  0  0
    4.8440    4.3640   -1.5200 H   0  0  0  0  0  0  0  0  0  0  0  0
    4.8220    2.9290   -0.4670 H   0  0  0  0  0  0  0  0  0  0  0  0
    4.5480    3.3170   -1.4480 C   0  0  0  0  0  0  0  0  0  0  0  0
  1  2  1  0  0  0  0
  1 27  2  0  0  0  0
  1 66  1  0  0  0  0
  3  4  2  0  0  0  0
  4  6  1  0  0  0  0
  4  9  1  0  0  0  0
  5  6  1  0  0  0  0
  7  9  1  0  0  0  0
  8  9  1  0  0  0  0
  9 12  1  0  0  0  0
 10 12  1  0  0  0  0
 11 12  1  0  0  0  0
 12 13  1  0  0  0  0
 13 14  2  0  0  0  0
 13 16  1  0  0  0  0
 14 15  1  0  0  0  0
 14 21  1  0  0  0  0
 15 17  1  0  0  0  0
 15 45  2  0  0  0  0
 16 17  2  0  0  0  0
 16 23  1  0  0  0  0
 18 21  1  0  0  0  0
 19 21  1  0  0  0  0
 20 21  1  0  0  0  0
 22 23  1  0  0  0  0
 23 24  2  0  0  0  0
 24 25  1  0  0  0  0
 24 29  1  0  0  0  0
 25 26  2  0  0  0  0
 25 32  1  0  0  0  0
 26 27  1  0  0  0  0
 26 43  1  0  0  0  0
 27 29  1  0  0  0  0
 28 29  1  0  0  0  0
 30 32  1  0  0  0  0
 31 32  1  0  0  0  0
 32 35  1  0  0  0  0
 33 35  1  0  0  0  0
 34 35  1  0  0  0  0
 35 37  1  0  0  0  0
 36 37  2  0  0  0  0
 37 39  1  0  0  0  0
 38 39  1  0  0  0  0
 40 43  1  0  0  0  0
 41 43  1  0  0  0  0
 42 43  1  0  0  0  0
 44 45  1  0  0  0  0
 45 46  1  0  0  0  0
 46 47  2  0  0  0  0
 46 51  1  0  0  0  0
 47 48  1  0  0  0  0
 47 53  1  0  0  0  0
 48 49  2  0  0  0  0
 48 60  1  0  0  0  0
 49 51  1  0  0  0  0
 49 62  1  0  0  0  0
 50 51  1  0  0  0  0
 52 53  1  0  0  0  0
 53 56  2  0  0  0  0
 54 56  1  0  0  0  0
 55 56  1  0  0  0  0
 57 60  1  0  0  0  0
 58 60  1  0  0  0  0
 59 60  1  0  0  0  0
 61 62  1  0  0  0  0
 62 63  2  0  0  0  0
 63 64  1  0  0  0  0
 63 67  1  0  0  0  0
 64 65  2  0  0  0  0
 64 69  1  0  0  0  0
 65 66  1  0  0  0  0
 65 76  1  0  0  0  0
 66 67  2  0  0  0  0
 68 69  1  0  0  0  0
 69 72  2  0  0  0  0
 70 72  1  0  0  0  0
 71 72  1  0  0  0  0
 73 76  1  0  0  0  0
 74 76  1  0  0  0  0
 75 76  1  0  0  0  0
M  END
