D-ribose.mol
  -ISIS-  10180209543D

 20 19  0  0  0  0  0  0  0  0999 V2000
   -0.1409    3.0032   -0.0182 C   0  0  0  0  0  0  0  0  0  0  0  0
    0.1464    1.6400    0.5876 C   0  0  1  0  0  0  0  0  0  0  0  0
   -0.1030    0.4695   -0.3561 C   0  0  1  0  0  0  0  0  0  0  0  0
    0.0770   -0.8970    0.2970 C   0  0  1  0  0  0  0  0  0  0  0  0
   -0.3295   -2.0556   -0.5972 C   0  0  0  0  0  0  0  0  0  0  0  0
    0.0360   -3.2686    0.0634 O   0  0  0  0  0  0  0  0  0  0  0  0
    1.4523   -1.1041    0.6274 O   0  0  0  0  0  0  0  0  0  0  0  0
   -1.4444    0.5721   -0.8416 O   0  0  0  0  0  0  0  0  0  0  0  0
    1.5145    1.6690    1.0083 O   0  0  0  0  0  0  0  0  0  0  0  0
    0.6546    3.8953    0.1639 O   0  0  0  0  0  0  0  0  0  0  0  0
   -1.0841    3.1784   -0.5803 H   0  0  0  0  0  0  0  0  0  0  0  0
   -0.4921    1.5525    1.4970 H   0  0  0  0  0  0  0  0  0  0  0  0
    0.5623    0.5553   -1.2470 H   0  0  0  0  0  0  0  0  0  0  0  0
   -0.5034   -0.9469    1.2483 H   0  0  0  0  0  0  0  0  0  0  0  0
   -1.4268   -2.0844   -0.7792 H   0  0  0  0  0  0  0  0  0  0  0  0
    0.2039   -2.0275   -1.5736 H   0  0  0  0  0  0  0  0  0  0  0  0
   -0.1638   -3.9863   -0.5114 H   0  0  0  0  0  0  0  0  0  0  0  0
    1.5235   -2.0116    0.8777 H   0  0  0  0  0  0  0  0  0  0  0  0
   -1.5297    0.0102   -1.5917 H   0  0  0  0  0  0  0  0  0  0  0  0
    1.7488    2.5861    1.0594 H   0  0  0  0  0  0  0  0  0  0  0  0
  1  2  1  0  0  0  0
  1 10  2  0  0  0  0
  1 11  1  6  0  0  0
  2  3  1  6  0  0  0
  2  9  1  0  0  0  0
  2 12  1  1  0  0  0
  3  4  1  0  0  0  0
  3  8  1  0  0  0  0
  3 13  1  6  0  0  0
  4  5  1  6  0  0  0
  4  7  1  0  0  0  0
  4 14  1  1  0  0  0
  5  6  1  1  0  0  0
  5 15  1  0  0  0  0
  5 16  1  6  0  0  0
  6 17  1  6  0  0  0
  7 18  1  0  0  0  0
  8 19  1  6  0  0  0
  9 20  1  0  0  0  0
M  END
