D-Fucose
  -ISIS-  10220215433D
Molecules-3D MDL file generator
 23 23  0  0  0  0  0  0  0  0999 V2000
   -0.5470    1.7010   -1.3760 H   0  0  0  0  0  0  0  0  0  0  0  0
   -2.3390    0.5940   -0.0850 H   0  0  0  0  0  0  0  0  0  0  0  0
    0.2760   -1.1850   -1.9880 H   0  0  0  0  0  0  0  0  0  0  0  0
    2.3390   -0.6270   -0.7630 H   0  0  0  0  0  0  0  0  0  0  0  0
   -0.4430    0.1200    0.8630 C   0  0  3  0  0  0  0  0  0  0  0  0
   -0.1940    1.1620    1.0720 H   0  0  0  0  0  0  0  0  0  0  0  0
   -1.4170    0.0440   -0.3160 C   0  0  3  0  0  0  0  0  0  0  0  0
   -0.7560    0.6460   -1.5450 C   0  0  3  0  0  0  0  0  0  0  0  0
    0.5280   -0.1380   -1.7980 C   0  0  3  0  0  0  0  0  0  0  0  0
    1.4250   -0.0610   -0.5560 C   0  0  3  0  0  0  0  0  0  0  0  0
    0.7520   -0.6320    0.5810 O   0  0  0  0  0  0  0  0  0  0  0  0
   -2.0370    0.0770    2.3120 H   0  0  0  0  0  0  0  0  0  0  0  0
   -1.3780   -1.5240    1.8960 H   0  0  0  0  0  0  0  0  0  0  0  0
   -0.4530   -0.4240    2.9460 H   0  0  0  0  0  0  0  0  0  0  0  0
   -1.1260   -0.4800    2.0930 C   0  0  0  0  0  0  0  0  0  0  0  0
    1.0130    1.7930   -0.0540 H   0  0  0  0  0  0  0  0  0  0  0  0
    1.8090    1.2820   -0.2740 O   0  0  0  0  0  0  0  0  0  0  0  0
    1.4260    1.3140   -2.7710 H   0  0  0  0  0  0  0  0  0  0  0  0
    1.2040    0.3740   -2.9460 O   0  0  0  0  0  0  0  0  0  0  0  0
   -1.8170   -0.3920   -2.8210 H   0  0  0  0  0  0  0  0  0  0  0  0
   -1.6240    0.5600   -2.6690 O   0  0  0  0  0  0  0  0  0  0  0  0
   -0.9140   -1.7930   -0.7790 H   0  0  0  0  0  0  0  0  0  0  0  0
   -1.7500   -1.3170   -0.5730 O   0  0  0  0  0  0  0  0  0  0  0  0
  1  8  1  0  0  0  0
  2  7  1  0  0  0  0
  3  9  1  0  0  0  0
  4 10  1  0  0  0  0
  5  6  1  0  0  0  0
  5  7  1  0  0  0  0
  5 11  1  0  0  0  0
  5 15  1  0  0  0  0
  7  8  1  0  0  0  0
  7 23  1  0  0  0  0
  8  9  1  0  0  0  0
  8 21  1  0  0  0  0
  9 10  1  0  0  0  0
  9 19  1  0  0  0  0
 10 11  1  0  0  0  0
 10 17  1  0  0  0  0
 12 15  1  0  0  0  0
 13 15  1  0  0  0  0
 14 15  1  0  0  0  0
 16 17  1  0  0  0  0
 18 19  1  0  0  0  0
 20 21  1  0  0  0  0
 22 23  1  0  0  0  0
M  END
