L-glyceradehyde.mol
  -ISIS-  10180209483D

 12 11  0  0  0  0  0  0  0  0999 V2000
    0.3577    1.7456   -0.3192 C   0  0  0  0  0  0  0  0  0  0  0  0
    0.1908    0.4243    0.4133 C   0  0  1  0  0  0  0  0  0  0  0  0
   -1.1692    0.2536    0.8159 O   0  0  0  0  0  0  0  0  0  0  0  0
    0.5649   -0.7659   -0.4488 C   0  0  0  0  0  0  0  0  0  0  0  0
    0.2717   -1.9493    0.2953 O   0  0  0  0  0  0  0  0  0  0  0  0
    1.1239    2.6124    0.0316 O   0  0  0  0  0  0  0  0  0  0  0  0
   -0.2649    1.8996   -1.2300 H   0  0  0  0  0  0  0  0  0  0  0  0
    0.8132    0.4385    1.3383 H   0  0  0  0  0  0  0  0  0  0  0  0
   -1.2368   -0.6244    1.1541 H   0  0  0  0  0  0  0  0  0  0  0  0
    1.6491   -0.7707   -0.7000 H   0  0  0  0  0  0  0  0  0  0  0  0
   -0.0308   -0.8000   -1.3885 H   0  0  0  0  0  0  0  0  0  0  0  0
    0.4543   -2.6924   -0.2520 H   0  0  0  0  0  0  0  0  0  0  0  0
  1  2  1  1  0  0  0
  1  6  2  0  0  0  0
  1  7  1  6  0  0  0
  2  3  1  0  0  0  0
  2  4  1  6  0  0  0
  2  8  1  1  0  0  0
  3  9  1  0  0  0  0
  4  5  1  1  0  0  0
  4 10  1  0  0  0  0
  4 11  1  6  0  0  0
  5 12  1  6  0  0  0
M  END
