D-Mannose
  -ISIS-  10180209543D
Molecules-3D MDL file generator
 24 23  0  0  0  0  0  0  0  0999 V2000
    1.1240    1.1940   -1.5440 O   0  0  0  0  0  0  0  0  0  0  0  0
    1.8750    1.3030   -0.9240 H   0  0  0  0  0  0  0  0  0  0  0  0
   -1.1720    0.3390    1.1590 O   0  0  0  0  0  0  0  0  0  0  0  0
   -1.9220    0.2310    0.5380 H   0  0  0  0  0  0  0  0  0  0  0  0
   -1.1670   -1.2950   -1.1340 O   0  0  0  0  0  0  0  0  0  0  0  0
   -1.9130   -1.2020   -0.5050 H   0  0  0  0  0  0  0  0  0  0  0  0
    1.1740   -2.1020    1.5440 O   0  0  0  0  0  0  0  0  0  0  0  0
    1.9210   -2.1940    0.9160 H   0  0  0  0  0  0  0  0  0  0  0  0
    0.8830   -1.2430   -0.9560 H   0  0  0  0  0  0  0  0  0  0  0  0
    0.8770    0.3290    0.9600 H   0  0  0  0  0  0  0  0  0  0  0  0
   -0.0440    2.6900   -0.0550 C   0  0  0  0  0  0  0  0  0  0  0  0
   -0.0320    1.3140   -0.7270 C   0  0  3  0  0  0  0  0  0  0  0  0
   -0.0150    0.2200    0.3440 C   0  0  3  0  0  0  0  0  0  0  0  0
   -0.0050   -1.1520   -0.3300 C   0  0  3  0  0  0  0  0  0  0  0  0
    0.0130   -2.2460    0.7400 C   0  0  3  0  0  0  0  0  0  0  0  0
    0.0430   -4.5430    0.7900 O   0  0  0  0  0  0  0  0  0  0  0  0
    0.0220   -3.5960   -0.8770 H   0  0  0  0  0  0  0  0  0  0  0  0
    0.0260   -3.5300    0.1100 C   0  0  0  0  0  0  0  0  0  0  0  0
   -0.0690    4.5430   -0.5480 H   0  0  0  0  0  0  0  0  0  0  0  0
   -0.0610    3.7010   -1.0510 O   0  0  0  0  0  0  0  0  0  0  0  0
   -0.9250    1.2050   -1.3440 H   0  0  0  0  0  0  0  0  0  0  0  0
   -0.9310    2.7800    0.5700 H   0  0  0  0  0  0  0  0  0  0  0  0
   -0.8760   -2.1560    1.3660 H   0  0  0  0  0  0  0  0  0  0  0  0
    0.8500    2.8020    0.5610 H   0  0  0  0  0  0  0  0  0  0  0  0
  1 12  1  0  0  0  0
  1  2  1  0  0  0  0
  3 13  1  0  0  0  0
  3  4  1  0  0  0  0
  5 14  1  0  0  0  0
  5  6  1  0  0  0  0
  7 15  1  0  0  0  0
  7  8  1  0  0  0  0
  9 14  1  0  0  0  0
 10 13  1  0  0  0  0
 11 12  1  0  0  0  0
 11 20  1  0  0  0  0
 11 22  1  0  0  0  0
 11 24  1  0  0  0  0
 12 13  1  0  0  0  0
 12 21  1  0  0  0  0
 13 14  1  0  0  0  0
 14 15  1  0  0  0  0
 15 18  1  0  0  0  0
 15 23  1  0  0  0  0
 16 18  2  0  0  0  0
 17 18  1  0  0  0  0
 19 20  1  0  0  0  0
M  END
