D-Mannitol
  -ISIS-  10220215403D
Molecules-3D MDL file generator
 26 25  0  0  0  0  0  0  0  0999 V2000
    4.1740   -0.8740   -0.7320 O   0  0  0  0  0  0  0  0  0  0  0  0
    4.9600   -0.3210   -0.9230 H   0  0  0  0  0  0  0  0  0  0  0  0
    1.9490   -1.4290    0.8960 O   0  0  0  0  0  0  0  0  0  0  0  0
    2.1320   -0.7460    1.5730 H   0  0  0  0  0  0  0  0  0  0  0  0
    0.4970    1.0080   -1.4060 O   0  0  0  0  0  0  0  0  0  0  0  0
    0.3160    0.3250   -2.0850 H   0  0  0  0  0  0  0  0  0  0  0  0
   -0.9140   -1.4080   -0.9350 O   0  0  0  0  0  0  0  0  0  0  0  0
   -1.0060   -0.8560   -1.7390 H   0  0  0  0  0  0  0  0  0  0  0  0
   -1.5400    1.4290    1.2810 O   0  0  0  0  0  0  0  0  0  0  0  0
   -1.4500    0.8760    2.0850 H   0  0  0  0  0  0  0  0  0  0  0  0
   -4.1760    0.6700    0.6570 O   0  0  0  0  0  0  0  0  0  0  0  0
   -4.9610    0.1160    0.8500 H   0  0  0  0  0  0  0  0  0  0  0  0
   -2.9910   -0.7980    1.4840 H   0  0  0  0  0  0  0  0  0  0  0  0
   -0.5300   -1.0260    1.0490 H   0  0  0  0  0  0  0  0  0  0  0  0
    3.3120    0.7510    0.1930 H   0  0  0  0  0  0  0  0  0  0  0  0
    0.8480    0.9800    0.6200 H   0  0  0  0  0  0  0  0  0  0  0  0
    3.1040    0.0520   -0.6170 C   0  0  0  0  0  0  0  0  0  0  0  0
    1.8060   -0.7070   -0.3190 C   0  0  3  0  0  0  0  0  0  0  0  0
    0.6440    0.2830   -0.1920 C   0  0  3  0  0  0  0  0  0  0  0  0
   -0.6470   -0.4840    0.1120 C   0  0  3  0  0  0  0  0  0  0  0  0
   -1.8110    0.5050    0.2360 C   0  0  3  0  0  0  0  0  0  0  0  0
   -3.1020   -0.2540    0.5450 C   0  0  0  0  0  0  0  0  0  0  0  0
    1.6010   -1.4030   -1.1320 H   0  0  0  0  0  0  0  0  0  0  0  0
   -3.3130   -0.9580   -0.2600 H   0  0  0  0  0  0  0  0  0  0  0  0
   -1.9280    1.0460   -0.7030 H   0  0  0  0  0  0  0  0  0  0  0  0
    2.9970    0.6020   -1.5520 H   0  0  0  0  0  0  0  0  0  0  0  0
  1 17  1  0  0  0  0
  1  2  1  0  0  0  0
  3 18  1  0  0  0  0
  3  4  1  0  0  0  0
  5 19  1  0  0  0  0
  5  6  1  0  0  0  0
  7 20  1  0  0  0  0
  7  8  1  0  0  0  0
  9 21  1  0  0  0  0
  9 10  1  0  0  0  0
 11 22  1  0  0  0  0
 11 12  1  0  0  0  0
 13 22  1  0  0  0  0
 14 20  1  0  0  0  0
 15 17  1  0  0  0  0
 16 19  1  0  0  0  0
 17 18  1  0  0  0  0
 17 26  1  0  0  0  0
 18 19  1  0  0  0  0
 18 23  1  0  0  0  0
 19 20  1  0  0  0  0
 20 21  1  0  0  0  0
 21 22  1  0  0  0  0
 21 25  1  0  0  0  0
 22 24  1  0  0  0  0
M  END
