Phosphoric
  -ISIS-  10220215473D
Molecules-3D MDL file generator
  8  7  0  0  0  0  0  0  0  0999 V2000
    1.2590    1.0870    0.2500 O   0  0  0  0  0  0  0  0  0  0  0  0
    0.2230    0.1400   -0.0760 P   0  0  3  0  0  0  0  0  0  0  0  0
    0.0300   -1.5210   -1.2130 H   0  0  0  0  0  0  0  0  0  0  0  0
    0.7850   -0.9200   -1.0410 O   0  0  0  0  0  0  0  0  0  0  0  0
   -0.9610   -1.1700    0.9110 H   0  0  0  0  0  0  0  0  0  0  0  0
   -0.2670   -0.5470    1.2130 O   0  0  0  0  0  0  0  0  0  0  0  0
   -1.2590    1.5210   -0.0770 H   0  0  0  0  0  0  0  0  0  0  0  0
   -0.9540    0.8740   -0.7470 O   0  0  0  0  0  0  0  0  0  0  0  0
  1  2  2  0  0  0  0
  2  4  1  0  0  0  0
  2  6  1  0  0  0  0
  2  8  1  0  0  0  0
  3  4  1  0  0  0  0
  5  6  1  0  0  0  0
  7  8  1  0  0  0  0
M  END
