Adenosine
  -ISIS-  12300212313D
Molecules-3D MDL file generator
 34 37  0  0  0  0  0  0  0  0999 V2000
    2.7500   -0.2930   -0.7400 C   0  0  0  0  0  0  0  0  0  0  0  0
    3.6840    0.0340   -0.6600 H   0  0  0  0  0  0  0  0  0  0  0  0
    1.6920    0.3660   -0.3940 N   0  0  3  0  0  0  0  0  0  0  0  0
    2.4250   -1.4350   -1.2260 N   0  0  0  0  0  0  0  0  0  0  0  0
    0.8040   -3.6550   -2.0140 N   0  0  0  0  0  0  0  0  0  0  0  0
    1.8050   -3.7740   -2.1870 H   0  0  0  0  0  0  0  0  0  0  0  0
    0.1500   -4.3920   -2.2900 H   0  0  0  0  0  0  0  0  0  0  0  0
   -0.5540   -0.2300   -0.4620 N   0  0  0  0  0  0  0  0  0  0  0  0
   -1.3500   -1.2010   -0.7790 C   0  0  0  0  0  0  0  0  0  0  0  0
    0.6940   -0.3890   -0.6510 C   0  0  0  0  0  0  0  0  0  0  0  0
   -0.9130   -2.3000   -1.2840 N   0  0  0  0  0  0  0  0  0  0  0  0
    0.3360   -2.4850   -1.4850 C   0  0  0  0  0  0  0  0  0  0  0  0
    1.1550   -1.4990   -1.1500 C   0  0  0  0  0  0  0  0  0  0  0  0
   -2.3230   -1.0960   -0.6290 H   0  0  0  0  0  0  0  0  0  0  0  0
   -2.5860    3.2990    0.7010 O   0  0  0  0  0  0  0  0  0  0  0  0
   -1.7330    2.2690    1.2030 C   0  0  0  0  0  0  0  0  0  0  0  0
   -2.0290    1.3040    0.7900 H   0  0  0  0  0  0  0  0  0  0  0  0
   -1.8050    2.2390    2.2900 H   0  0  0  0  0  0  0  0  0  0  0  0
    1.5500    4.0210   -0.1700 O   0  0  0  0  0  0  0  0  0  0  0  0
    2.5300    4.0630   -0.1320 H   0  0  0  0  0  0  0  0  0  0  0  0
    1.2640    2.7590   -0.7650 C   0  0  3  0  0  0  0  0  0  0  0  0
   -0.2130    2.5730   -0.7130 C   0  0  3  0  0  0  0  0  0  0  0  0
   -0.3000    2.5810    0.7910 C   0  0  3  0  0  0  0  0  0  0  0  0
    0.7120    1.6460    1.2580 O   0  0  0  0  0  0  0  0  0  0  0  0
    1.7030    1.6410    0.1880 C   0  0  3  0  0  0  0  0  0  0  0  0
    2.7170    1.8560    0.5280 H   0  0  0  0  0  0  0  0  0  0  0  0
   -0.4960    1.6030   -1.1170 H   0  0  0  0  0  0  0  0  0  0  0  0
   -0.0220    3.5760    1.1420 H   0  0  0  0  0  0  0  0  0  0  0  0
    1.7200    2.7040   -1.7530 H   0  0  0  0  0  0  0  0  0  0  0  0
   -0.9820    3.6260   -1.2760 O   0  0  0  0  0  0  0  0  0  0  0  0
   -3.2870    4.3920   -1.3470 O   0  0  0  0  0  0  0  0  0  0  0  0
   -2.4410    3.3380   -0.8450 P   0  0  3  0  0  0  0  0  0  0  0  0
   -3.6840    2.2480   -2.0020 H   0  0  0  0  0  0  0  0  0  0  0  0
   -2.9070    2.0050   -1.4530 O   0  0  0  0  0  0  0  0  0  0  0  0
  1  2  1  0  0  0  0
  1  3  1  0  0  0  0
  1  4  2  0  0  0  0
  3 10  1  0  0  0  0
  3 25  1  0  0  0  0
  4 13  1  0  0  0  0
  5  6  1  0  0  0  0
  5  7  1  0  0  0  0
  5 12  1  0  0  0  0
  8  9  1  0  0  0  0
  8 10  2  0  0  0  0
  9 11  2  0  0  0  0
  9 14  1  0  0  0  0
 10 13  1  0  0  0  0
 11 12  1  0  0  0  0
 12 13  2  0  0  0  0
 15 16  1  0  0  0  0
 15 32  1  0  0  0  0
 16 17  1  0  0  0  0
 16 18  1  0  0  0  0
 16 23  1  0  0  0  0
 19 20  1  0  0  0  0
 19 21  1  0  0  0  0
 21 22  1  0  0  0  0
 21 25  1  0  0  0  0
 21 29  1  0  0  0  0
 22 23  1  0  0  0  0
 22 27  1  0  0  0  0
 22 30  1  0  0  0  0
 23 24  1  0  0  0  0
 23 28  1  0  0  0  0
 24 25  1  0  0  0  0
 25 26  1  0  0  0  0
 30 32  1  0  0  0  0
 31 32  2  0  0  0  0
 32 34  1  0  0  0  0
 33 34  1  0  0  0  0
M  END
