beta-D-2-deoxyribofuranose.mol
  -ISIS-  12170217373D

 19 19  0  0  0  0  0  0  0  0999 V2000
    1.4653   -0.2275   -0.2920 C   0  0  2  0  0  0  0  0  0  0  0  0
    0.4570    0.5431   -0.9134 O   0  0  0  0  0  0  0  0  0  0  0  0
   -0.7706   -0.0949   -0.6096 C   0  0  1  0  0  0  0  0  0  0  0  0
   -0.6158   -0.7113    0.7719 C   0  0  1  0  0  0  0  0  0  0  0  0
   -1.1420   -2.0396    0.7769 O   0  0  0  0  0  0  0  0  0  0  0  0
    0.8908   -0.7243    1.0186 C   0  0  0  0  0  0  0  0  0  0  0  0
   -1.9251    0.8802   -0.7487 C   0  0  0  0  0  0  0  0  0  0  0  0
   -1.7653    1.9705    0.1600 O   0  0  0  0  0  0  0  0  0  0  0  0
    2.4751    0.7635   -0.1035 O   0  0  0  0  0  0  0  0  0  0  0  0
    1.8153   -1.0290   -0.9772 H   0  0  0  0  0  0  0  0  0  0  0  0
   -0.8987   -0.9100   -1.3647 H   0  0  0  0  0  0  0  0  0  0  0  0
   -1.1483   -0.1397    1.5644 H   0  0  0  0  0  0  0  0  0  0  0  0
   -1.0800   -2.3669    1.6576 H   0  0  0  0  0  0  0  0  0  0  0  0
    1.2850   -1.7307    1.2849 H   0  0  0  0  0  0  0  0  0  0  0  0
    1.1384   -0.0265    1.8528 H   0  0  0  0  0  0  0  0  0  0  0  0
   -2.8938    0.3835   -0.5155 H   0  0  0  0  0  0  0  0  0  0  0  0
   -1.9765    1.3023   -1.7775 H   0  0  0  0  0  0  0  0  0  0  0  0
   -2.4873    2.5595    0.0234 H   0  0  0  0  0  0  0  0  0  0  0  0
    2.0825    1.5697   -0.3949 H   0  0  0  0  0  0  0  0  0  0  0  0
  1  2  1  0  0  0  0
  1  6  1  1  0  0  0
  1  9  1  0  0  0  0
  1 10  1  6  0  0  0
  2  3  1  0  0  0  0
  3  4  1  1  0  0  0
  3  7  1  0  0  0  0
  3 11  1  6  0  0  0
  4  5  1  0  0  0  0
  4  6  1  0  0  0  0
  4 12  1  1  0  0  0
  5 13  1  1  0  0  0
  6 14  1  0  0  0  0
  6 15  1  1  0  0  0
  7  8  1  1  0  0  0
  7 16  1  0  0  0  0
  7 17  1  6  0  0  0
  8 18  1  0  0  0  0
  9 19  1  0  0  0  0
M  END
