Cytidine
  -ISIS-  12170219583D
Molecules-3D MDL file generator
 30 31  0  0  0  0  0  0  0  0999 V2000
    1.0080    3.7020   -0.5080 O   0  0  0  0  0  0  0  0  0  0  0  0
    0.7360    4.1620   -1.3290 H   0  0  0  0  0  0  0  0  0  0  0  0
    0.0100   -0.4150    1.5600 O   0  0  0  0  0  0  0  0  0  0  0  0
    2.3100   -3.4700   -0.6460 N   0  0  0  0  0  0  0  0  0  0  0  0
    1.8130   -4.1620   -0.2580 H   0  0  0  0  0  0  0  0  0  0  0  0
    2.9940   -3.6730   -1.2560 H   0  0  0  0  0  0  0  0  0  0  0  0
    1.1500   -1.8910    0.4730 N   0  0  0  0  0  0  0  0  0  0  0  0
    2.0610   -2.2600   -0.3470 C   0  0  0  0  0  0  0  0  0  0  0  0
    2.7700   -1.2760   -0.8980 C   0  0  0  0  0  0  0  0  0  0  0  0
    3.4930   -1.4900   -1.5440 H   0  0  0  0  0  0  0  0  0  0  0  0
    0.9000   -0.6770    0.7680 C   0  0  0  0  0  0  0  0  0  0  0  0
    2.5110   -0.0140   -0.5870 C   0  0  0  0  0  0  0  0  0  0  0  0
    3.0380    0.7160   -0.9980 H   0  0  0  0  0  0  0  0  0  0  0  0
    1.5790    0.2590    0.2410 N   0  0  3  0  0  0  0  0  0  0  0  0
   -1.3280    2.9140   -1.4430 O   0  0  0  0  0  0  0  0  0  0  0  0
   -1.6600    0.2880    0.6880 C   0  0  0  0  0  0  0  0  0  0  0  0
   -1.0870   -0.3540    1.3490 H   0  0  0  0  0  0  0  0  0  0  0  0
   -1.7020   -0.1600   -0.3040 H   0  0  0  0  0  0  0  0  0  0  0  0
    1.4640    1.9830   -1.5600 H   0  0  0  0  0  0  0  0  0  0  0  0
   -0.5430    1.9010   -0.8310 C   0  0  3  0  0  0  0  0  0  0  0  0
   -0.9850    1.6520    0.6000 C   0  0  3  0  0  0  0  0  0  0  0  0
    0.1850    1.6390    1.4320 O   0  0  0  0  0  0  0  0  0  0  0  0
    1.3120    1.5690    0.5630 C   0  0  3  0  0  0  0  0  0  0  0  0
    0.8960    2.2990   -0.6920 C   0  0  3  0  0  0  0  0  0  0  0  0
    2.2070    2.0080    1.0000 H   0  0  0  0  0  0  0  0  0  0  0  0
   -1.6830    2.4390    0.9040 H   0  0  0  0  0  0  0  0  0  0  0  0
   -0.6040    0.9650   -1.3940 H   0  0  0  0  0  0  0  0  0  0  0  0
   -1.2560    3.7580   -0.9100 H   0  0  0  0  0  0  0  0  0  0  0  0
   -3.4930    1.0180    0.5900 H   0  0  0  0  0  0  0  0  0  0  0  0
   -2.9790    0.4380    1.1900 O   0  0  0  0  0  0  0  0  0  0  0  0
  1 24  1  0  0  0  0
  1  2  1  0  0  0  0
  3 11  2  0  0  0  0
  4  5  1  0  0  0  0
  4  6  1  0  0  0  0
  4  8  1  0  0  0  0
  7  8  2  0  0  0  0
  7 11  1  0  0  0  0
  8  9  1  0  0  0  0
  9 10  1  0  0  0  0
  9 12  2  0  0  0  0
 11 14  1  0  0  0  0
 12 13  1  0  0  0  0
 12 14  1  0  0  0  0
 14 23  1  0  0  0  0
 15 20  1  0  0  0  0
 15 28  1  0  0  0  0
 16 17  1  0  0  0  0
 16 18  1  0  0  0  0
 16 21  1  0  0  0  0
 16 30  1  0  0  0  0
 19 24  1  0  0  0  0
 20 21  1  0  0  0  0
 20 24  1  0  0  0  0
 20 27  1  0  0  0  0
 21 22  1  0  0  0  0
 21 26  1  0  0  0  0
 22 23  1  0  0  0  0
 23 24  1  0  0  0  0
 23 25  1  0  0  0  0
 29 30  1  0  0  0  0
M  END
