Deoxycytidine
  -ISIS-  12170219593D
Molecules-3D MDL file generator
 29 30  0  0  0  0  0  0  0  0999 V2000
    0.0100   -0.2130    1.5600 O   0  0  0  0  0  0  0  0  0  0  0  0
    2.3100   -3.2680   -0.6460 N   0  0  0  0  0  0  0  0  0  0  0  0
    1.8130   -3.9600   -0.2580 H   0  0  0  0  0  0  0  0  0  0  0  0
    2.9940   -3.4710   -1.2560 H   0  0  0  0  0  0  0  0  0  0  0  0
    1.1500   -1.6890    0.4730 N   0  0  0  0  0  0  0  0  0  0  0  0
    2.0610   -2.0580   -0.3470 C   0  0  0  0  0  0  0  0  0  0  0  0
    2.7700   -1.0740   -0.8980 C   0  0  0  0  0  0  0  0  0  0  0  0
    3.4930   -1.2880   -1.5440 H   0  0  0  0  0  0  0  0  0  0  0  0
    0.9000   -0.4750    0.7680 C   0  0  0  0  0  0  0  0  0  0  0  0
    2.5110    0.1880   -0.5870 C   0  0  0  0  0  0  0  0  0  0  0  0
    3.0380    0.9180   -0.9980 H   0  0  0  0  0  0  0  0  0  0  0  0
    1.5790    0.4610    0.2410 N   0  0  3  0  0  0  0  0  0  0  0  0
   -1.3280    3.1160   -1.4430 O   0  0  0  0  0  0  0  0  0  0  0  0
   -1.6600    0.4900    0.6880 C   0  0  0  0  0  0  0  0  0  0  0  0
   -1.0870   -0.1520    1.3490 H   0  0  0  0  0  0  0  0  0  0  0  0
   -1.7020    0.0420   -0.3040 H   0  0  0  0  0  0  0  0  0  0  0  0
    1.4640    2.1850   -1.5600 H   0  0  0  0  0  0  0  0  0  0  0  0
   -0.5430    2.1030   -0.8310 C   0  0  3  0  0  0  0  0  0  0  0  0
   -0.9850    1.8540    0.6000 C   0  0  3  0  0  0  0  0  0  0  0  0
    0.1850    1.8410    1.4320 O   0  0  0  0  0  0  0  0  0  0  0  0
    1.3120    1.7710    0.5630 C   0  0  3  0  0  0  0  0  0  0  0  0
    0.8960    2.5010   -0.6920 C   0  0  0  0  0  0  0  0  0  0  0  0
    2.2070    2.2100    1.0000 H   0  0  0  0  0  0  0  0  0  0  0  0
   -1.6830    2.6410    0.9040 H   0  0  0  0  0  0  0  0  0  0  0  0
    0.9820    3.5740   -0.5510 H   0  0  0  0  0  0  0  0  0  0  0  0
   -0.6040    1.1670   -1.3940 H   0  0  0  0  0  0  0  0  0  0  0  0
   -1.2560    3.9600   -0.9100 H   0  0  0  0  0  0  0  0  0  0  0  0
   -3.4930    1.2200    0.5900 H   0  0  0  0  0  0  0  0  0  0  0  0
   -2.9790    0.6400    1.1900 O   0  0  0  0  0  0  0  0  0  0  0  0
  3  2  1  0  0  0  0
  4  2  1  0  0  0  0
  6  2  1  0  0  0  0
  6  5  2  0  0  0  0
  7  6  1  0  0  0  0
  8  7  1  0  0  0  0
  9  1  2  0  0  0  0
  9  5  1  0  0  0  0
 10  7  2  0  0  0  0
 11 10  1  0  0  0  0
 12  9  1  0  0  0  0
 12 10  1  0  0  0  0
 15 14  1  0  0  0  0
 16 14  1  0  0  0  0
 18 13  1  0  0  0  0
 19 14  1  0  0  0  0
 19 18  1  0  0  0  0
 20 19  1  0  0  0  0
 21 12  1  0  0  0  0
 21 20  1  0  0  0  0
 22 17  1  0  0  0  0
 22 18  1  0  0  0  0
 22 21  1  0  0  0  0
 23 21  1  0  0  0  0
 24 19  1  0  0  0  0
 25 22  1  0  0  0  0
 26 18  1  0  0  0  0
 27 13  1  0  0  0  0
 29 28  1  0  0  0  0
 29 14  1  0  0  0  0
M  END
