Deoxyadenosine
  -ISIS-  12170219593D
Molecules-3D MDL file generator
 31 33  0  0  0  0  0  0  0  0999 V2000
    1.3880   -3.6600   -0.3850 N   0  0  0  0  0  0  0  0  0  0  0  0
    1.0800   -4.1250   -1.2350 H   0  0  0  0  0  0  0  0  0  0  0  0
    2.2300   -4.1400   -0.0480 H   0  0  0  0  0  0  0  0  0  0  0  0
    2.4290    0.1170   -1.2040 N   0  0  0  0  0  0  0  0  0  0  0  0
    2.9840   -0.8700   -1.8210 C   0  0  0  0  0  0  0  0  0  0  0  0
    3.6800   -0.6820   -2.5000 H   0  0  0  0  0  0  0  0  0  0  0  0
    2.6530   -2.1120   -1.5710 N   0  0  0  0  0  0  0  0  0  0  0  0
    1.7430   -2.3830   -0.7100 C   0  0  0  0  0  0  0  0  0  0  0  0
   -3.5900    1.5190    1.3090 O   0  0  0  0  0  0  0  0  0  0  0  0
   -3.6800    1.8680    0.4070 H   0  0  0  0  0  0  0  0  0  0  0  0
   -1.9250    4.1400   -0.6440 H   0  0  0  0  0  0  0  0  0  0  0  0
   -1.1300    1.4100   -0.7820 H   0  0  0  0  0  0  0  0  0  0  0  0
    0.4070    3.9000   -0.1820 H   0  0  0  0  0  0  0  0  0  0  0  0
   -1.6920    3.2960    1.5490 H   0  0  0  0  0  0  0  0  0  0  0  0
    1.9070    2.2390    0.8480 H   0  0  0  0  0  0  0  0  0  0  0  0
    0.3140    2.8600   -0.4890 C   0  0  0  0  0  0  0  0  0  0  0  0
    0.8790    1.9660    0.6040 C   0  0  3  0  0  0  0  0  0  0  0  0
    0.0140    2.2190    1.6990 O   0  0  0  0  0  0  0  0  0  0  0  0
   -1.3080    2.3650    1.1320 C   0  0  3  0  0  0  0  0  0  0  0  0
   -1.1130    2.4260   -0.3940 C   0  0  3  0  0  0  0  0  0  0  0  0
    0.7470    2.6940   -1.4720 H   0  0  0  0  0  0  0  0  0  0  0  0
   -1.9500    0.3350    0.8120 H   0  0  0  0  0  0  0  0  0  0  0  0
   -2.0650    0.8740    2.5000 H   0  0  0  0  0  0  0  0  0  0  0  0
   -2.2180    1.1720    1.4650 C   0  0  0  0  0  0  0  0  0  0  0  0
   -2.0240    3.2630   -1.0870 O   0  0  0  0  0  0  0  0  0  0  0  0
    0.8330    0.6040    0.4240 N   0  0  3  0  0  0  0  0  0  0  0  0
   -0.5980    0.1450    1.7730 H   0  0  0  0  0  0  0  0  0  0  0  0
    0.0590   -0.1640    1.1020 C   0  0  0  0  0  0  0  0  0  0  0  0
    0.2530   -1.3890    0.7850 N   0  0  0  0  0  0  0  0  0  0  0  0
    1.1610   -1.3730   -0.1000 C   0  0  0  0  0  0  0  0  0  0  0  0
    1.5200   -0.1350   -0.3450 C   0  0  0  0  0  0  0  0  0  0  0  0
  1  2  1  0  0  0  0
  1  3  1  0  0  0  0
  1  8  1  0  0  0  0
  4  5  2  0  0  0  0
  4 31  1  0  0  0  0
  5  6  1  0  0  0  0
  5  7  1  0  0  0  0
  7  8  2  0  0  0  0
  8 30  1  0  0  0  0
  9 10  1  0  0  0  0
  9 24  1  0  0  0  0
 11 25  1  0  0  0  0
 12 20  1  0  0  0  0
 13 16  1  0  0  0  0
 14 19  1  0  0  0  0
 15 17  1  0  0  0  0
 16 17  1  0  0  0  0
 16 20  1  0  0  0  0
 16 21  1  0  0  0  0
 17 18  1  0  0  0  0
 17 26  1  0  0  0  0
 18 19  1  0  0  0  0
 19 20  1  0  0  0  0
 19 24  1  0  0  0  0
 20 25  1  0  0  0  0
 22 24  1  0  0  0  0
 23 24  1  0  0  0  0
 26 28  1  0  0  0  0
 26 31  1  0  0  0  0
 27 28  1  0  0  0  0
 28 29  2  0  0  0  0
 29 30  1  0  0  0  0
 30 31  2  0  0  0  0
M  END
