Deoxythymidine
  -ISIS-  12170219593D
Molecules-3D MDL file generator
 31 32  0  0  0  0  0  0  0  0999 V2000
    0.3540   -2.8510    0.7970 C   0  0  0  0  0  0  0  0  0  0  0  0
    0.4720   -2.8090    1.8790 H   0  0  0  0  0  0  0  0  0  0  0  0
    0.7100   -3.8060    0.4220 H   0  0  0  0  0  0  0  0  0  0  0  0
   -0.6970   -2.7190    0.5380 H   0  0  0  0  0  0  0  0  0  0  0  0
    0.8430   -0.5660    0.5210 C   0  0  0  0  0  0  0  0  0  0  0  0
    0.1350   -0.3170    1.1620 H   0  0  0  0  0  0  0  0  0  0  0  0
    1.1100   -1.8130    0.2060 C   0  0  0  0  0  0  0  0  0  0  0  0
    2.0860   -2.0780   -0.6630 C   0  0  0  0  0  0  0  0  0  0  0  0
    2.3280   -3.2350   -0.9510 O   0  0  0  0  0  0  0  0  0  0  0  0
    2.7750   -1.1420   -1.1990 N   0  0  3  0  0  0  0  0  0  0  0  0
    3.4570   -1.3460   -1.8010 H   0  0  0  0  0  0  0  0  0  0  0  0
    2.5360    0.0630   -0.9180 C   0  0  0  0  0  0  0  0  0  0  0  0
    3.1840    0.9670   -1.4130 O   0  0  0  0  0  0  0  0  0  0  0  0
    1.5580    0.3590   -0.0630 N   0  0  3  0  0  0  0  0  0  0  0  0
   -1.3240    2.9930   -1.7930 O   0  0  0  0  0  0  0  0  0  0  0  0
   -1.6580    0.3860    0.3790 C   0  0  0  0  0  0  0  0  0  0  0  0
   -1.0740   -0.2610    1.0370 H   0  0  0  0  0  0  0  0  0  0  0  0
   -1.6960   -0.0620   -0.6150 H   0  0  0  0  0  0  0  0  0  0  0  0
    1.5070    2.1380   -1.8790 H   0  0  0  0  0  0  0  0  0  0  0  0
   -0.5310    1.9950   -1.1470 C   0  0  3  0  0  0  0  0  0  0  0  0
   -0.9710    1.7530    0.2970 C   0  0  3  0  0  0  0  0  0  0  0  0
    0.2040    1.8030    1.1440 O   0  0  0  0  0  0  0  0  0  0  0  0
    1.3220    1.7000    0.2550 C   0  0  3  0  0  0  0  0  0  0  0  0
    0.9110    2.4210   -1.0080 C   0  0  0  0  0  0  0  0  0  0  0  0
    2.2340    2.1030    0.6870 H   0  0  0  0  0  0  0  0  0  0  0  0
   -1.6550    2.5390    0.6090 H   0  0  0  0  0  0  0  0  0  0  0  0
    0.9640    3.4810   -0.8180 H   0  0  0  0  0  0  0  0  0  0  0  0
   -0.5670    1.0430   -1.6720 H   0  0  0  0  0  0  0  0  0  0  0  0
   -1.2320    3.8060   -1.2280 H   0  0  0  0  0  0  0  0  0  0  0  0
   -3.4570    1.1110    0.2740 H   0  0  0  0  0  0  0  0  0  0  0  0
   -2.9770    0.5260    0.9030 O   0  0  0  0  0  0  0  0  0  0  0  0
  1  7  1  0  0  0  0
  1  2  1  0  0  0  0
  1  3  1  0  0  0  0
  1  4  1  0  0  0  0
  5  7  2  0  0  0  0
  5 14  1  0  0  0  0
  5  6  1  0  0  0  0
  7  8  1  0  0  0  0
  8 10  1  0  0  0  0
  8  9  2  0  0  0  0
 10 12  1  0  0  0  0
 10 11  1  0  0  0  0
 12 14  1  0  0  0  0
 12 13  2  0  0  0  0
 14 23  1  0  0  0  0
 15 20  1  0  0  0  0
 15 29  1  0  0  0  0
 16 17  1  0  0  0  0
 16 18  1  0  0  0  0
 16 21  1  0  0  0  0
 16 31  1  0  0  0  0
 19 24  1  0  0  0  0
 20 21  1  0  0  0  0
 20 24  1  0  0  0  0
 20 28  1  0  0  0  0
 21 22  1  0  0  0  0
 21 26  1  0  0  0  0
 22 23  1  0  0  0  0
 23 24  1  0  0  0  0
 23 25  1  0  0  0  0
 24 27  1  0  0  0  0
 30 31  1  0  0  0  0
M  END
