FADH2.mol
  -ISIS-  12300212303D

 86 91  0  0  0  0  0  0  0  0999 V2000
    2.9427   -7.7555   -0.1867 C   0  0  2  0  0  0  0  0  0  0  0  0
    2.1812   -6.7123   -0.7793 O   0  0  0  0  0  0  0  0  0  0  0  0
    0.8369   -7.1584   -0.7872 C   0  0  1  0  0  0  0  0  0  0  0  0
    0.6576   -7.8261    0.5629 C   0  0  1  0  0  0  0  0  0  0  0  0
   -0.3133   -8.8718    0.5182 O   0  0  0  0  0  0  0  0  0  0  0  0
    2.0348   -8.3985    0.8536 C   0  0  1  0  0  0  0  0  0  0  0  0
    2.0154   -9.8191    0.6902 O   0  0  0  0  0  0  0  0  0  0  0  0
   -0.0906   -5.9861   -1.0522 C   0  0  0  0  0  0  0  0  0  0  0  0
   -1.4276   -6.4326   -1.1748 O   0  0  0  0  0  0  0  0  0  0  0  0
   -2.4524   -6.0284    0.1689 P   0  0  3  0  0  0  0  0  0  0  0  0
   -3.8847   -6.1248   -0.2879 O   0  0  0  0  0  0  0  0  0  0  0  0
   -2.1197   -4.4312    0.7676 O   0  0  0  0  0  0  0  0  0  0  0  0
   -2.2336   -7.2226    1.4207 O   0  5  0  0  0  0  0  0  0  0  0  0
   -4.2325   -3.3700   -0.4578 O   0  0  0  0  0  0  0  0  0  0  0  0
   -2.5061   -1.6768    0.6793 O   0  0  0  0  0  0  0  0  0  0  0  0
   -3.4689   -0.6896    0.3750 C   0  0  0  0  0  0  0  0  0  0  0  0
   -2.9110    0.6635    0.7860 C   0  0  1  0  0  0  0  0  0  0  0  0
   -1.6739    0.8512    0.0956 O   0  0  0  0  0  0  0  0  0  0  0  0
   -3.8618    1.8096    0.4636 C   0  0  1  0  0  0  0  0  0  0  0  0
   -4.9970    1.6970    1.3268 O   0  0  0  0  0  0  0  0  0  0  0  0
   -3.2233    3.1915    0.6209 C   0  0  1  0  0  0  0  0  0  0  0  0
   -2.2791    3.3659   -0.4403 O   0  0  0  0  0  0  0  0  0  0  0  0
   -4.2515    4.3237    0.5482 C   0  0  0  0  0  0  0  0  0  0  0  0
   -0.3551    6.0732    1.3248 C   0  0  0  0  0  0  0  0  0  0  0  0
   -0.1773    7.4118    1.1261 N   0  0  3  0  0  0  0  0  0  0  0  0
   -1.1633    8.2740    0.7376 C   0  0  0  0  0  0  0  0  0  0  0  0
   -2.4887    7.6461    0.5234 C   0  0  0  0  0  0  0  0  0  0  0  0
   -3.5752    8.4692    0.1493 N   0  0  3  0  0  0  0  0  0  0  0  0
   -4.8783    7.9910   -0.0335 C   0  0  0  0  0  0  0  0  0  0  0  0
   -5.9050    8.8687   -0.3673 C   0  0  0  0  0  0  0  0  0  0  0  0
   -7.2229    8.4073   -0.5424 C   0  0  0  0  0  0  0  0  0  0  0  0
   -8.3214    9.3826   -0.8945 C   0  0  0  0  0  0  0  0  0  0  0  0
   -7.4883    7.0473   -0.3638 C   0  0  0  0  0  0  0  0  0  0  0  0
   -8.8876    6.5007   -0.5354 C   0  0  0  0  0  0  0  0  0  0  0  0
   -6.4357    6.1712   -0.0268 C   0  0  0  0  0  0  0  0  0  0  0  0
   -5.1217    6.6085    0.1349 C   0  0  0  0  0  0  0  0  0  0  0  0
   -3.9700    5.7813    0.4750 N   0  0  3  0  0  0  0  0  0  0  0  0
   -2.6754    6.2965    0.6932 C   0  0  0  0  0  0  0  0  0  0  0  0
   -1.6038    5.5914    1.0974 N   0  0  3  0  0  0  0  0  0  0  0  0
   -0.9298    9.4674    0.5955 O   0  0  0  0  0  0  0  0  0  0  0  0
   -2.7627   -3.1481   -0.2177 P   0  0  3  0  0  0  0  0  0  0  0  0
   -1.9553   -2.9255   -1.7428 O   0  5  0  0  0  0  0  0  0  0  0  0
    4.2262   -7.3040    0.3518 N   0  0  1  0  0  0  0  0  0  0  0  0
    4.4130   -6.1275    1.0174 C   0  0  0  0  0  0  0  0  0  0  0  0
    5.6736   -6.0153    1.3590 N   0  0  0  0  0  0  0  0  0  0  0  0
    6.2958   -7.1662    0.8904 C   0  0  0  0  0  0  0  0  0  0  0  0
    5.3871   -8.0116    0.2417 C   0  0  0  0  0  0  0  0  0  0  0  0
    5.7788   -9.2057   -0.3039 N   0  0  0  0  0  0  0  0  0  0  0  0
    7.0688   -9.4821   -0.1616 C   0  0  0  0  0  0  0  0  0  0  0  0
    8.0322   -8.7319    0.4460 N   0  0  0  0  0  0  0  0  0  0  0  0
    7.6705   -7.5507    0.9877 C   0  0  0  0  0  0  0  0  0  0  0  0
    8.5389   -6.7029    1.6175 N   0  0  0  0  0  0  0  0  0  0  0  0
    0.5504    5.3649    1.6837 O   0  0  0  0  0  0  0  0  0  0  0  0
    3.1628   -8.4808   -1.0069 H   0  0  0  0  0  0  0  0  0  0  0  0
    0.7411   -7.9079   -1.6100 H   0  0  0  0  0  0  0  0  0  0  0  0
    0.3643   -7.0947    1.3486 H   0  0  0  0  0  0  0  0  0  0  0  0
   -1.1569   -8.4910    0.6426 H   0  0  0  0  0  0  0  0  0  0  0  0
    2.3476   -8.1703    1.8977 H   0  0  0  0  0  0  0  0  0  0  0  0
    1.1275  -10.0857    0.8590 H   0  0  0  0  0  0  0  0  0  0  0  0
    0.1906   -5.4877   -2.0091 H   0  0  0  0  0  0  0  0  0  0  0  0
   -0.0085   -5.2323   -0.2428 H   0  0  0  0  0  0  0  0  0  0  0  0
   -4.4060   -0.9325    0.9247 H   0  0  0  0  0  0  0  0  0  0  0  0
   -3.6665   -0.7127   -0.7204 H   0  0  0  0  0  0  0  0  0  0  0  0
   -2.6750    0.6602    1.8765 H   0  0  0  0  0  0  0  0  0  0  0  0
   -1.1682    0.0687    0.2354 H   0  0  0  0  0  0  0  0  0  0  0  0
   -4.2443    1.6974   -0.5780 H   0  0  0  0  0  0  0  0  0  0  0  0
   -5.7135    2.1594    0.9268 H   0  0  0  0  0  0  0  0  0  0  0  0
   -2.6818    3.2126    1.5937 H   0  0  0  0  0  0  0  0  0  0  0  0
   -1.6625    2.6562   -0.4006 H   0  0  0  0  0  0  0  0  0  0  0  0
   -4.9313    4.2095    1.4269 H   0  0  0  0  0  0  0  0  0  0  0  0
   -4.8198    4.0876   -0.3845 H   0  0  0  0  0  0  0  0  0  0  0  0
    0.7412    7.7907    1.2868 H   0  0  0  0  0  0  0  0  0  0  0  0
   -3.4016    9.4970    0.0271 H   0  0  0  0  0  0  0  0  0  0  0  0
   -5.6764    9.9396   -0.4900 H   0  0  0  0  0  0  0  0  0  0  0  0
   -9.1680    9.3042   -0.1761 H   0  0  0  0  0  0  0  0  0  0  0  0
   -8.7006    9.1839   -1.9223 H   0  0  0  0  0  0  0  0  0  0  0  0
   -7.9730   10.4390   -0.8685 H   0  0  0  0  0  0  0  0  0  0  0  0
   -9.5508    6.8752    0.2767 H   0  0  0  0  0  0  0  0  0  0  0  0
   -8.9184    5.3890   -0.5011 H   0  0  0  0  0  0  0  0  0  0  0  0
   -9.3149    6.8006   -1.5184 H   0  0  0  0  0  0  0  0  0  0  0  0
   -6.6957    5.1124    0.1178 H   0  0  0  0  0  0  0  0  0  0  0  0
   -1.7600    4.6091    1.2204 H   0  0  0  0  0  0  0  0  0  0  0  0
    3.6149   -5.4068    1.2205 H   0  0  0  0  0  0  0  0  0  0  0  0
    7.4064  -10.4390   -0.5929 H   0  0  0  0  0  0  0  0  0  0  0  0
    9.5508   -6.9693    1.6952 H   0  0  0  0  0  0  0  0  0  0  0  0
    8.1716   -5.8013    2.0091 H   0  0  0  0  0  0  0  0  0  0  0  0
  1  2  1  0  0  0  0
  1  6  1  1  0  0  0
  1 43  1  0  0  0  0
  1 54  1  6  0  0  0
  2  3  1  0  0  0  0
  3  4  1  1  0  0  0
  3  8  1  0  0  0  0
  3 55  1  6  0  0  0
  4  5  1  0  0  0  0
  4  6  1  0  0  0  0
  4 56  1  1  0  0  0
  5 57  1  0  0  0  0
  6  7  1  0  0  0  0
  6 58  1  1  0  0  0
  7 59  1  0  0  0  0
  8  9  1  0  0  0  0
  8 60  1  6  0  0  0
  8 61  1  1  0  0  0
  9 10  1  1  0  0  0
 10 11  2  0  0  0  0
 10 12  1  0  0  0  0
 10 13  1  1  0  0  0
 12 41  1  6  0  0  0
 14 41  2  0  0  0  0
 15 16  1  0  0  0  0
 15 41  1  6  0  0  0
 16 17  1  0  0  0  0
 16 62  1  1  0  0  0
 16 63  1  6  0  0  0
 17 18  1  6  0  0  0
 17 19  1  0  0  0  0
 17 64  1  1  0  0  0
 18 65  1  0  0  0  0
 19 20  1  1  0  0  0
 19 21  1  0  0  0  0
 19 66  1  6  0  0  0
 20 67  1  0  0  0  0
 21 22  1  6  0  0  0
 21 23  1  0  0  0  0
 21 68  1  1  0  0  0
 22 69  1  0  0  0  0
 23 37  1  0  0  0  0
 23 70  1  1  0  0  0
 23 71  1  6  0  0  0
 24 25  1  0  0  0  0
 24 39  1  0  0  0  0
 24 53  2  0  0  0  0
 25 26  1  0  0  0  0
 25 72  1  0  0  0  0
 26 27  1  0  0  0  0
 26 40  2  0  0  0  0
 27 28  1  0  0  0  0
 27 38  2  0  0  0  0
 28 29  1  0  0  0  0
 28 73  1  0  0  0  0
 29 30  2  0  0  0  0
 29 36  1  0  0  0  0
 30 31  1  0  0  0  0
 30 74  1  0  0  0  0
 31 32  1  0  0  0  0
 31 33  2  0  0  0  0
 32 75  1  1  0  0  0
 32 76  1  6  0  0  0
 32 77  1  0  0  0  0
 33 34  1  0  0  0  0
 33 35  1  0  0  0  0
 34 78  1  1  0  0  0
 34 79  1  0  0  0  0
 34 80  1  6  0  0  0
 35 36  2  0  0  0  0
 35 81  1  0  0  0  0
 36 37  1  0  0  0  0
 37 38  1  0  0  0  0
 38 39  1  0  0  0  0
 39 82  1  0  0  0  0
 41 42  1  6  0  0  0
 43 44  1  1  0  0  0
 43 47  1  0  0  0  0
 44 45  2  0  0  0  0
 44 83  1  0  0  0  0
 45 46  1  0  0  0  0
 46 47  2  0  0  0  0
 46 51  1  0  0  0  0
 47 48  1  0  0  0  0
 48 49  2  0  0  0  0
 49 50  1  0  0  0  0
 49 84  1  0  0  0  0
 50 51  2  0  0  0  0
 51 52  1  1  0  0  0
 52 85  1  0  0  0  0
 52 86  1  0  0  0  0
M  CHG  2  13  -1  42  -1
M  END
