gmp.mol
  -ISIS-  12300212293D

 36 38  0  0  0  0  0  0  0  0999 V2000
    5.2531    0.6917    0.1326 N   0  0  3  0  0  0  0  0  0  0  0  0
    4.5276   -0.4221   -0.0954 C   0  0  0  0  0  0  0  0  0  0  0  0
    3.2204   -0.3808   -0.1038 N   0  0  0  0  0  0  0  0  0  0  0  0
    2.6207    0.8636    0.1284 C   0  0  0  0  0  0  0  0  0  0  0  0
    3.3382    2.0283    0.3691 C   0  0  0  0  0  0  0  0  0  0  0  0
    4.8062    1.9529    0.3768 C   0  0  0  0  0  0  0  0  0  0  0  0
    1.2875    2.6481    0.4531 C   0  0  0  0  0  0  0  0  0  0  0  0
    2.5156    3.1082    0.5678 N   0  0  0  0  0  0  0  0  0  0  0  0
    5.5793    2.8786    0.5735 O   0  0  0  0  0  0  0  0  0  0  0  0
    5.2431   -1.5662   -0.3088 N   0  0  0  0  0  0  0  0  0  0  0  0
    1.3373    1.3153    0.1935 N   0  0  3  0  0  0  0  0  0  0  0  0
   -1.4665   -0.6243    1.3747 C   0  0  1  0  0  0  0  0  0  0  0  0
    0.0260   -0.6019    1.0850 C   0  0  2  0  0  0  0  0  0  0  0  0
    0.1745    0.4528   -0.0088 C   0  0  1  0  0  0  0  0  0  0  0  0
   -1.0779    1.1200   -0.0745 O   0  0  0  0  0  0  0  0  0  0  0  0
   -2.0443    0.1186    0.1870 C   0  0  2  0  0  0  0  0  0  0  0  0
   -3.4117    0.7270    0.4321 C   0  0  0  0  0  0  0  0  0  0  0  0
   -1.9842   -1.9497    1.4743 O   0  0  0  0  0  0  0  0  0  0  0  0
   -3.9076    1.3080   -0.7584 O   0  0  0  0  0  0  0  0  0  0  0  0
   -5.1954    0.8386   -3.0123 O   0  0  0  0  0  0  0  0  0  0  0  0
   -4.8088    0.1733   -1.7179 P   0  0  3  0  0  0  0  0  0  0  0  0
   -3.8596   -1.2358   -2.0700 O   0  5  0  0  0  0  0  0  0  0  0  0
   -6.2530   -0.2992   -0.8812 O   0  5  0  0  0  0  0  0  0  0  0  0
    0.4795   -1.8671    0.5995 O   0  0  0  0  0  0  0  0  0  0  0  0
    6.2484    0.5380    0.1157 H   0  0  0  0  0  0  0  0  0  0  0  0
    0.3637    3.2266    0.5476 H   0  0  0  0  0  0  0  0  0  0  0  0
    6.2920   -1.5410   -0.2905 H   0  0  0  0  0  0  0  0  0  0  0  0
    4.7300   -2.4629   -0.4915 H   0  0  0  0  0  0  0  0  0  0  0  0
   -1.6909   -0.0888    2.3260 H   0  0  0  0  0  0  0  0  0  0  0  0
    0.6098   -0.3508    1.9994 H   0  0  0  0  0  0  0  0  0  0  0  0
    0.3240   -0.0384   -1.0016 H   0  0  0  0  0  0  0  0  0  0  0  0
   -2.0680   -0.5657   -0.6914 H   0  0  0  0  0  0  0  0  0  0  0  0
   -3.3540    1.5222    1.2102 H   0  0  0  0  0  0  0  0  0  0  0  0
   -4.1315   -0.0476    0.7771 H   0  0  0  0  0  0  0  0  0  0  0  0
   -1.9370   -2.3314    0.6140 H   0  0  0  0  0  0  0  0  0  0  0  0
    1.3170   -1.7256    0.1907 H   0  0  0  0  0  0  0  0  0  0  0  0
  1  2  1  0  0  0  0
  1  6  1  0  0  0  0
  1 25  1  0  0  0  0
  2  3  2  0  0  0  0
  2 10  1  0  0  0  0
  3  4  1  0  0  0  0
  4  5  2  0  0  0  0
  4 11  1  0  0  0  0
  5  6  1  0  0  0  0
  5  8  1  0  0  0  0
  6  9  2  0  0  0  0
  7  8  2  0  0  0  0
  7 11  1  0  0  0  0
  7 26  1  0  0  0  0
 10 27  1  0  0  0  0
 10 28  1  0  0  0  0
 11 14  1  0  0  0  0
 12 13  1  0  0  0  0
 12 16  1  6  0  0  0
 12 18  1  0  0  0  0
 12 29  1  1  0  0  0
 13 14  1  6  0  0  0
 13 24  1  0  0  0  0
 13 30  1  1  0  0  0
 14 15  1  0  0  0  0
 14 31  1  6  0  0  0
 15 16  1  0  0  0  0
 16 17  1  0  0  0  0
 16 32  1  6  0  0  0
 17 19  1  6  0  0  0
 17 33  1  1  0  0  0
 17 34  1  0  0  0  0
 18 35  1  6  0  0  0
 19 21  1  6  0  0  0
 20 21  2  0  0  0  0
 21 22  1  0  0  0  0
 21 23  1  1  0  0  0
 24 36  1  0  0  0  0
M  CHG  2  22  -1  23  -1
M  END
