Guanosine
  -ISIS-  12300212313D
Molecules-3D MDL file generator
 35 38  0  0  0  0  0  0  0  0999 V2000
   -1.3690   -2.7340   -0.4050 N   0  0  0  0  0  0  0  0  0  0  0  0
   -1.2510   -2.8040    0.6100 H   0  0  0  0  0  0  0  0  0  0  0  0
   -2.0800   -2.0270   -0.5870 H   0  0  0  0  0  0  0  0  0  0  0  0
   -2.7990    0.0300   -0.3480 O   0  0  0  0  0  0  0  0  0  0  0  0
   -3.5630   -0.4740    0.0020 H   0  0  0  0  0  0  0  0  0  0  0  0
   -2.6750    1.2430    0.5900 P   0  0  3  0  0  0  0  0  0  0  0  0
   -3.9320    1.9480    0.5950 O   0  0  0  0  0  0  0  0  0  0  0  0
   -1.5990    2.1930    0.0340 O   0  0  0  0  0  0  0  0  0  0  0  0
    0.9240    2.5910   -1.2230 H   0  0  0  0  0  0  0  0  0  0  0  0
   -0.0260    2.0560    2.0880 H   0  0  0  0  0  0  0  0  0  0  0  0
   -0.4280    0.5550   -0.5200 H   0  0  0  0  0  0  0  0  0  0  0  0
    2.8160    1.8080    0.3990 H   0  0  0  0  0  0  0  0  0  0  0  0
    1.8800    1.2710    0.2580 C   0  0  3  0  0  0  0  0  0  0  0  0
    1.3550    0.6510    1.4690 O   0  0  0  0  0  0  0  0  0  0  0  0
   -0.0210    1.1270    1.5160 C   0  0  3  0  0  0  0  0  0  0  0  0
   -0.3960    1.4540    0.0950 C   0  0  3  0  0  0  0  0  0  0  0  0
    0.8110    2.2560   -0.1930 C   0  0  3  0  0  0  0  0  0  0  0  0
    1.6710    3.8020    0.5500 H   0  0  0  0  0  0  0  0  0  0  0  0
    0.8050    3.3660    0.6940 O   0  0  0  0  0  0  0  0  0  0  0  0
   -0.8090   -0.0890    3.1110 H   0  0  0  0  0  0  0  0  0  0  0  0
   -1.0860   -0.7420    1.4770 H   0  0  0  0  0  0  0  0  0  0  0  0
   -1.0620    0.1640    2.0800 C   0  0  0  0  0  0  0  0  0  0  0  0
   -2.3440    0.8070    2.0500 O   0  0  0  0  0  0  0  0  0  0  0  0
    2.0350   -1.4480   -1.8440 C   0  0  0  0  0  0  0  0  0  0  0  0
    1.5530   -2.5850   -2.2840 C   0  0  0  0  0  0  0  0  0  0  0  0
    0.4400   -2.9820   -1.7910 N   0  0  3  0  0  0  0  0  0  0  0  0
    1.3730   -0.7380   -0.9590 C   0  0  0  0  0  0  0  0  0  0  0  0
   -0.1940   -2.2670   -0.9110 C   0  0  0  0  0  0  0  0  0  0  0  0
    0.2600   -1.1380   -0.5000 N   0  0  0  0  0  0  0  0  0  0  0  0
    3.1450   -0.8770   -2.0960 N   0  0  0  0  0  0  0  0  0  0  0  0
    2.1020    0.2630   -0.6600 N   0  0  3  0  0  0  0  0  0  0  0  0
    3.9320    0.8100   -1.3200 H   0  0  0  0  0  0  0  0  0  0  0  0
    3.1810    0.1660   -1.3520 C   0  0  0  0  0  0  0  0  0  0  0  0
    2.1530   -3.2520   -3.1110 O   0  0  0  0  0  0  0  0  0  0  0  0
    0.0830   -3.8020   -2.0650 H   0  0  0  0  0  0  0  0  0  0  0  0
  1  2  1  0  0  0  0
  1  3  1  0  0  0  0
  1 28  1  0  0  0  0
  4  5  1  0  0  0  0
  4  6  1  0  0  0  0
  6  7  2  0  0  0  0
  6  8  1  0  0  0  0
  6 23  1  0  0  0  0
  8 16  1  0  0  0  0
  9 17  1  0  0  0  0
 10 15  1  0  0  0  0
 11 16  1  0  0  0  0
 12 13  1  0  0  0  0
 13 14  1  0  0  0  0
 13 17  1  0  0  0  0
 13 31  1  0  0  0  0
 14 15  1  0  0  0  0
 15 16  1  0  0  0  0
 15 22  1  0  0  0  0
 16 17  1  0  0  0  0
 17 19  1  0  0  0  0
 18 19  1  0  0  0  0
 20 22  1  0  0  0  0
 21 22  1  0  0  0  0
 22 23  1  0  0  0  0
 24 25  1  0  0  0  0
 24 27  2  0  0  0  0
 24 30  1  0  0  0  0
 25 26  1  0  0  0  0
 25 34  2  0  0  0  0
 26 28  1  0  0  0  0
 26 35  1  0  0  0  0
 27 29  1  0  0  0  0
 27 31  1  0  0  0  0
 28 29  2  0  0  0  0
 30 33  2  0  0  0  0
 31 33  1  0  0  0  0
 32 33  1  0  0  0  0
M  END
