Guanosine
  -ISIS-  12170219583D
Molecules-3D MDL file generator
 33 35  0  0  0  0  0  0  0  0999 V2000
   -0.5160    3.5890   -0.3710 O   0  0  0  0  0  0  0  0  0  0  0  0
   -0.6350    3.8580   -1.3060 H   0  0  0  0  0  0  0  0  0  0  0  0
    0.7910   -0.5970    1.1730 C   0  0  0  0  0  0  0  0  0  0  0  0
    0.2810   -1.7330    1.6170 C   0  0  0  0  0  0  0  0  0  0  0  0
   -0.9410   -1.5750    1.9090 N   0  0  0  0  0  0  0  0  0  0  0  0
   -1.2040   -0.3500    1.6670 C   0  0  0  0  0  0  0  0  0  0  0  0
   -2.0880    0.0720    1.8060 H   0  0  0  0  0  0  0  0  0  0  0  0
   -0.1700    0.2650    1.2280 N   0  0  3  0  0  0  0  0  0  0  0  0
   -2.0140    1.8530   -2.1630 O   0  0  0  0  0  0  0  0  0  0  0  0
   -3.3490    0.4690    0.4720 C   0  0  0  0  0  0  0  0  0  0  0  0
   -3.4840    0.2870    1.5350 H   0  0  0  0  0  0  0  0  0  0  0  0
   -2.8590   -0.4020    0.0250 H   0  0  0  0  0  0  0  0  0  0  0  0
    0.6260    1.9700   -1.0010 H   0  0  0  0  0  0  0  0  0  0  0  0
   -1.4970    1.4620   -0.8980 C   0  0  3  0  0  0  0  0  0  0  0  0
   -2.4430    1.6980    0.2930 C   0  0  3  0  0  0  0  0  0  0  0  0
   -1.5860    1.9110    1.4400 O   0  0  0  0  0  0  0  0  0  0  0  0
   -0.2640    1.6290    1.0070 C   0  0  3  0  0  0  0  0  0  0  0  0
   -0.2710    2.1870   -0.4220 C   0  0  3  0  0  0  0  0  0  0  0  0
    0.4660    2.1400    1.6350 H   0  0  0  0  0  0  0  0  0  0  0  0
   -3.0190    2.6200    0.2170 H   0  0  0  0  0  0  0  0  0  0  0  0
   -1.2190    0.4090   -0.9090 H   0  0  0  0  0  0  0  0  0  0  0  0
   -2.2130    2.8100   -2.0610 H   0  0  0  0  0  0  0  0  0  0  0  0
   -4.5090    0.9010   -1.0220 H   0  0  0  0  0  0  0  0  0  0  0  0
   -4.6430    0.6770   -0.0880 O   0  0  0  0  0  0  0  0  0  0  0  0
    0.9840   -2.8290    1.7330 C   0  0  0  0  0  0  0  0  0  0  0  0
    2.7830   -1.5650    0.9130 C   0  0  0  0  0  0  0  0  0  0  0  0
    2.0330   -0.5150    0.8250 N   0  0  0  0  0  0  0  0  0  0  0  0
    0.4920   -3.8580    2.1640 O   0  0  0  0  0  0  0  0  0  0  0  0
    2.8850   -3.5810    1.4570 H   0  0  0  0  0  0  0  0  0  0  0  0
    2.2810   -2.7590    1.3690 N   0  0  3  0  0  0  0  0  0  0  0  0
    4.3340   -0.5700    0.3090 H   0  0  0  0  0  0  0  0  0  0  0  0
    4.6430   -1.7640    1.4070 H   0  0  0  0  0  0  0  0  0  0  0  0
    4.1040   -1.5280    0.5670 N   0  0  0  0  0  0  0  0  0  0  0  0
  1  2  1  0  0  0  0
  1 18  1  0  0  0  0
  3  4  2  0  0  0  0
  3  8  1  0  0  0  0
  3 27  1  0  0  0  0
  4  5  1  0  0  0  0
  4 25  1  0  0  0  0
  5  6  2  0  0  0  0
  6  7  1  0  0  0  0
  6  8  1  0  0  0  0
  8 17  1  0  0  0  0
  9 14  1  0  0  0  0
  9 22  1  0  0  0  0
 10 11  1  0  0  0  0
 10 12  1  0  0  0  0
 10 15  1  0  0  0  0
 10 24  1  0  0  0  0
 13 18  1  0  0  0  0
 14 15  1  0  0  0  0
 14 18  1  0  0  0  0
 14 21  1  0  0  0  0
 15 16  1  0  0  0  0
 15 20  1  0  0  0  0
 16 17  1  0  0  0  0
 17 18  1  0  0  0  0
 17 19  1  0  0  0  0
 23 24  1  0  0  0  0
 25 28  2  0  0  0  0
 25 30  1  0  0  0  0
 26 27  2  0  0  0  0
 26 30  1  0  0  0  0
 26 33  1  0  0  0  0
 29 30  1  0  0  0  0
 31 33  1  0  0  0  0
 32 33  1  0  0  0  0
M  END
