NADH.mol
  -ISIS-  12300212303D

 71 75  0  0  0  0  0  0  0  0999 V2000
   -5.8058   -2.0132   -0.4065 C   0  0  2  0  0  0  0  0  0  0  0  0
   -4.7434   -1.4182    0.3318 O   0  0  0  0  0  0  0  0  0  0  0  0
   -3.5728   -2.1277   -0.0256 C   0  0  1  0  0  0  0  0  0  0  0  0
   -3.6880   -2.2938   -1.5277 C   0  0  1  0  0  0  0  0  0  0  0  0
   -3.0135   -3.4703   -1.9714 O   0  0  0  0  0  0  0  0  0  0  0  0
   -5.1875   -2.3929   -1.7493 C   0  0  1  0  0  0  0  0  0  0  0  0
   -5.5286   -3.7360   -2.0987 O   0  0  0  0  0  0  0  0  0  0  0  0
   -2.3206   -1.3823    0.3963 C   0  0  0  0  0  0  0  0  0  0  0  0
   -1.2064   -2.1258   -0.0527 O   0  0  0  0  0  0  0  0  0  0  0  0
    0.3200   -1.3941    0.3544 P   0  0  3  0  0  0  0  0  0  0  0  0
    0.1777    0.0961    0.4953 O   0  0  0  0  0  0  0  0  0  0  0  0
    1.4312   -1.8523   -0.9056 O   0  0  0  0  0  0  0  0  0  0  0  0
    0.7987   -2.0549    1.8963 O   0  5  0  0  0  0  0  0  0  0  0  0
    3.9414   -0.9051   -1.8461 O   0  0  0  0  0  0  0  0  0  0  0  0
    4.4074   -1.5495   -0.6769 C   0  0  0  0  0  0  0  0  0  0  0  0
    5.9259   -1.5704   -0.6618 C   0  0  2  0  0  0  0  0  0  0  0  0
    6.5146   -2.3693    0.4914 C   0  0  1  0  0  0  0  0  0  0  0  0
    6.9712   -3.6490    0.0453 O   0  0  0  0  0  0  0  0  0  0  0  0
    7.6890   -1.5250    0.9592 C   0  0  1  0  0  0  0  0  0  0  0  0
    8.8800   -2.3113    0.9959 O   0  0  0  0  0  0  0  0  0  0  0  0
    7.7910   -0.4037   -0.0645 C   0  0  1  0  0  0  0  0  0  0  0  0
    6.4448   -0.2602   -0.5058 O   0  0  0  0  0  0  0  0  0  0  0  0
    8.4322    0.8712    0.3569 N   0  0  2  0  0  0  0  0  0  0  0  0
    8.0758    2.0108   -0.3840 C   0  0  0  0  0  0  0  0  0  0  0  0
    8.6251    3.1970   -0.0567 C   0  0  0  0  0  0  0  0  0  0  0  0
    9.6086    3.3498    1.0715 C   0  0  0  0  0  0  0  0  0  0  0  0
    9.9300    2.0551    1.7817 C   0  0  0  0  0  0  0  0  0  0  0  0
    9.3424    0.8835    1.4100 C   0  0  0  0  0  0  0  0  0  0  0  0
   10.9049    2.0998    2.8938 C   0  0  0  0  0  0  0  0  0  0  0  0
   11.4747    3.1231    3.2426 O   0  0  0  0  0  0  0  0  0  0  0  0
   11.1618    0.9373    3.5463 N   0  0  0  0  0  0  0  0  0  0  0  0
    2.0717    0.7796   -1.1100 O   0  0  0  0  0  0  0  0  0  0  0  0
    2.2334   -0.5672   -1.7630 P   0  0  3  0  0  0  0  0  0  0  0  0
    1.6537   -0.4552   -3.4034 O   0  5  0  0  0  0  0  0  0  0  0  0
  -10.1918   -0.4846   -2.8796 N   0  0  0  0  0  0  0  0  0  0  0  0
   -9.2143   -1.3368   -3.3015 C   0  0  0  0  0  0  0  0  0  0  0  0
   -8.1143   -1.7063   -2.6600 N   0  0  0  0  0  0  0  0  0  0  0  0
   -7.9428   -1.1439   -1.4226 C   0  0  0  0  0  0  0  0  0  0  0  0
   -8.8912   -0.2532   -0.9007 C   0  0  0  0  0  0  0  0  0  0  0  0
  -10.0568    0.0779   -1.6622 C   0  0  0  0  0  0  0  0  0  0  0  0
   -7.0226   -1.1948   -0.4129 N   0  0  1  0  0  0  0  0  0  0  0  0
   -7.3936   -0.3993    0.6344 C   0  0  0  0  0  0  0  0  0  0  0  0
   -8.5326    0.1904    0.3641 N   0  0  0  0  0  0  0  0  0  0  0  0
  -10.9668    0.9392   -1.1132 N   0  0  0  0  0  0  0  0  0  0  0  0
   -6.0891   -2.9438    0.1437 H   0  0  0  0  0  0  0  0  0  0  0  0
   -3.6097   -3.1198    0.4862 H   0  0  0  0  0  0  0  0  0  0  0  0
   -3.2617   -1.4220   -2.0744 H   0  0  0  0  0  0  0  0  0  0  0  0
   -2.0884   -3.3005   -1.9160 H   0  0  0  0  0  0  0  0  0  0  0  0
   -5.4900   -1.7147   -2.5771 H   0  0  0  0  0  0  0  0  0  0  0  0
   -4.7668   -4.0992   -2.5190 H   0  0  0  0  0  0  0  0  0  0  0  0
   -2.2600   -1.2814    1.5036 H   0  0  0  0  0  0  0  0  0  0  0  0
   -2.2923   -0.3711   -0.0678 H   0  0  0  0  0  0  0  0  0  0  0  0
    4.0198   -2.5941   -0.6813 H   0  0  0  0  0  0  0  0  0  0  0  0
    4.0059   -1.0112    0.2109 H   0  0  0  0  0  0  0  0  0  0  0  0
    6.3008   -1.9646   -1.6373 H   0  0  0  0  0  0  0  0  0  0  0  0
    5.7856   -2.5276    1.3184 H   0  0  0  0  0  0  0  0  0  0  0  0
    7.7990   -3.8029    0.4707 H   0  0  0  0  0  0  0  0  0  0  0  0
    7.4836   -1.1240    1.9782 H   0  0  0  0  0  0  0  0  0  0  0  0
    9.6116   -1.7290    1.0886 H   0  0  0  0  0  0  0  0  0  0  0  0
    8.3872   -0.7636   -0.9390 H   0  0  0  0  0  0  0  0  0  0  0  0
    7.3659    1.9069   -1.2157 H   0  0  0  0  0  0  0  0  0  0  0  0
    8.3547    4.0992   -0.6297 H   0  0  0  0  0  0  0  0  0  0  0  0
    9.1879    4.0718    1.8096 H   0  0  0  0  0  0  0  0  0  0  0  0
   10.5518    3.7744    0.6553 H   0  0  0  0  0  0  0  0  0  0  0  0
    9.5571   -0.0675    1.9039 H   0  0  0  0  0  0  0  0  0  0  0  0
   11.8285    0.9914    4.3026 H   0  0  0  0  0  0  0  0  0  0  0  0
   10.6883    0.0936    3.2621 H   0  0  0  0  0  0  0  0  0  0  0  0
   -9.3584   -1.7746   -4.3026 H   0  0  0  0  0  0  0  0  0  0  0  0
   -6.8159   -0.2949    1.5573 H   0  0  0  0  0  0  0  0  0  0  0  0
  -10.7827    1.3302   -0.1572 H   0  0  0  0  0  0  0  0  0  0  0  0
  -11.8285    1.1897   -1.6576 H   0  0  0  0  0  0  0  0  0  0  0  0
  1  2  1  1  0  0  0
  1  6  1  6  0  0  0
  1 41  1  0  0  0  0
  1 45  1  1  0  0  0
  2  3  1  0  0  0  0
  3  4  1  6  0  0  0
  3  8  1  0  0  0  0
  3 46  1  1  0  0  0
  4  5  1  0  0  0  0
  4  6  1  0  0  0  0
  4 47  1  6  0  0  0
  5 48  1  0  0  0  0
  6  7  1  0  0  0  0
  6 49  1  6  0  0  0
  7 50  1  0  0  0  0
  8  9  1  0  0  0  0
  8 51  1  1  0  0  0
  8 52  1  0  0  0  0
  9 10  1  0  0  0  0
 10 11  2  0  0  0  0
 10 12  1  6  0  0  0
 10 13  1  1  0  0  0
 12 33  1  6  0  0  0
 14 15  1  1  0  0  0
 14 33  1  0  0  0  0
 15 16  1  0  0  0  0
 15 53  1  0  0  0  0
 15 54  1  1  0  0  0
 16 17  1  1  0  0  0
 16 22  1  0  0  0  0
 16 55  1  6  0  0  0
 17 18  1  0  0  0  0
 17 19  1  0  0  0  0
 17 56  1  1  0  0  0
 18 57  1  1  0  0  0
 19 20  1  0  0  0  0
 19 21  1  6  0  0  0
 19 58  1  1  0  0  0
 20 59  1  0  0  0  0
 21 22  1  0  0  0  0
 21 23  1  0  0  0  0
 21 60  1  6  0  0  0
 23 24  1  6  0  0  0
 23 28  1  1  0  0  0
 24 25  2  0  0  0  0
 24 61  1  6  0  0  0
 25 26  1  1  0  0  0
 25 62  1  6  0  0  0
 26 27  1  1  0  0  0
 26 63  1  1  0  0  0
 26 64  1  0  0  0  0
 27 28  2  0  0  0  0
 27 29  1  1  0  0  0
 28 65  1  1  0  0  0
 29 30  2  0  0  0  0
 29 31  1  1  0  0  0
 31 66  1  1  0  0  0
 31 67  1  0  0  0  0
 32 33  2  0  0  0  0
 33 34  1  6  0  0  0
 35 36  2  0  0  0  0
 35 40  1  1  0  0  0
 36 37  1  1  0  0  0
 36 68  1  6  0  0  0
 37 38  2  0  0  0  0
 38 39  1  0  0  0  0
 38 41  1  1  0  0  0
 39 40  2  0  0  0  0
 39 43  1  1  0  0  0
 40 44  1  0  0  0  0
 41 42  1  1  0  0  0
 42 43  2  0  0  0  0
 42 69  1  1  0  0  0
 44 70  1  1  0  0  0
 44 71  1  6  0  0  0
M  CHG  2  13  -1  34  -1
M  END
